<?xml version="1.0" encoding="UTF-8"?>

<!-- generated on 2024-10-29 20:58:42 by Eclipse SUMO netedit Version 1.21.0
<neteditConfiguration xmlns:xsi="http://www.w3.org/2001/XMLSchema-instance" xsi:noNamespaceSchemaLocation="http://sumo.dlr.de/xsd/neteditConfiguration.xsd">

    <input>
        <sumo-net-file value="E:\BITMaster\Projects\Multi_Intersection_Sim\NewMap\Map.net.xml"/>
    </input>

    <output>
        <output-file value="E:\BITMaster\Projects\Multi_Intersection_Sim\NewMap\Map.net.xml"/>
    </output>

    <processing>
        <geometry.min-radius.fix.railways value="false"/>
        <geometry.max-grade.fix value="false"/>
        <offset.disable-normalization value="true"/>
        <lefthand value="0"/>
    </processing>

    <junctions>
        <no-turnarounds value="true"/>
        <junctions.corner-detail value="5"/>
        <junctions.limit-turn-speed value="5.50"/>
        <rectangular-lane-cut value="0"/>
    </junctions>

    <pedestrian>
        <walkingareas value="0"/>
    </pedestrian>

</neteditConfiguration>
-->

<net version="1.20" junctionCornerDetail="5" limitTurnSpeed="5.50" xmlns:xsi="http://www.w3.org/2001/XMLSchema-instance" xsi:noNamespaceSchemaLocation="http://sumo.dlr.de/xsd/net_file.xsd">

    <location netOffset="0.00,0.00" convBoundary="-501.76,-960.90,1415.48,659.27" origBoundary="-10000000000.00,-10000000000.00,10000000000.00,10000000000.00" projParameter="!"/>

    <edge id=":j1_0" function="internal">
        <lane id=":j1_0_0" index="0" speed="3.65" length="4.67" shape="-328.42,660.28 -329.79,660.71 -330.67,660.51 -331.04,659.70 -330.90,658.26"/>
    </edge>
    <edge id=":j10_0" function="internal">
        <lane id=":j10_0_0" index="0" speed="6.64" length="9.31" shape="-44.49,50.43 -46.94,50.79 -48.71,51.88 -49.80,53.72 -50.22,56.31"/>
    </edge>
    <edge id=":j10_1" function="internal">
        <lane id=":j10_1_0" index="0" speed="13.89" length="20.84" shape="-44.49,50.43 -65.31,50.43"/>
        <lane id=":j10_1_1" index="1" speed="13.89" length="20.84" shape="-44.47,47.23 -65.33,47.23"/>
    </edge>
    <edge id=":j10_3" function="internal">
        <lane id=":j10_3_0" index="0" speed="9.39" length="4.75" shape="-44.47,47.23 -49.17,46.52"/>
    </edge>
    <edge id=":j10_4" function="internal">
        <lane id=":j10_4_0" index="0" speed="3.65" length="1.44" shape="-44.47,47.23 -45.67,46.42"/>
    </edge>
    <edge id=":j10_20" function="internal">
        <lane id=":j10_20_0" index="0" speed="9.39" length="14.69" shape="-49.17,46.52 -49.66,46.45 -53.41,44.16 -55.73,40.37 -56.60,35.08"/>
    </edge>
    <edge id=":j10_21" function="internal">
        <lane id=":j10_21_0" index="0" speed="3.65" length="3.23" shape="-45.67,46.42 -46.06,45.62 -45.66,44.82 -44.45,44.03"/>
    </edge>
    <edge id=":j10_5" function="internal">
        <lane id=":j10_5_0" index="0" speed="6.68" length="9.35" shape="-50.20,34.92 -49.79,37.49 -48.68,39.34 -46.90,40.45 -44.43,40.83"/>
    </edge>
    <edge id=":j10_6" function="internal">
        <lane id=":j10_6_0" index="0" speed="13.89" length="21.30" shape="-50.20,34.92 -50.22,56.31"/>
        <lane id=":j10_6_1" index="1" speed="13.89" length="21.30" shape="-53.40,35.00 -53.42,56.22"/>
    </edge>
    <edge id=":j10_8" function="internal">
        <lane id=":j10_8_0" index="0" speed="9.24" length="19.57" shape="-53.40,35.00 -54.03,40.33 -56.23,44.14 -59.99,46.44 -65.33,47.23"/>
    </edge>
    <edge id=":j10_9" function="internal">
        <lane id=":j10_9_0" index="0" speed="3.65" length="4.67" shape="-53.40,35.00 -54.17,36.22 -54.96,36.64 -55.77,36.26 -56.60,35.08"/>
    </edge>
    <edge id=":j10_10" function="internal">
        <lane id=":j10_10_0" index="0" speed="6.48" length="9.10" shape="-65.37,40.83 -62.88,40.46 -61.12,39.40 -60.09,37.63 -59.80,35.17"/>
    </edge>
    <edge id=":j10_11" function="internal">
        <lane id=":j10_11_0" index="0" speed="13.89" length="20.91" shape="-65.37,40.83 -44.43,40.83"/>
        <lane id=":j10_11_1" index="1" speed="13.89" length="20.91" shape="-65.35,44.03 -44.45,44.03"/>
    </edge>
    <edge id=":j10_13" function="internal">
        <lane id=":j10_13_0" index="0" speed="9.21" length="5.19" shape="-65.35,44.03 -60.21,44.74"/>
    </edge>
    <edge id=":j10_14" function="internal">
        <lane id=":j10_14_0" index="0" speed="3.65" length="1.44" shape="-65.35,44.03 -64.14,44.82"/>
    </edge>
    <edge id=":j10_22" function="internal">
        <lane id=":j10_22_0" index="0" speed="9.21" length="14.41" shape="-60.21,44.74 -60.00,44.77 -56.23,47.04 -54.04,50.86 -53.42,56.22"/>
    </edge>
    <edge id=":j10_23" function="internal">
        <lane id=":j10_23_0" index="0" speed="3.65" length="3.23" shape="-64.14,44.82 -63.74,45.62 -64.14,46.42 -65.33,47.23"/>
    </edge>
    <edge id=":j10_15" function="internal">
        <lane id=":j10_15_0" index="0" speed="6.44" length="9.03" shape="-59.81,56.05 -60.10,53.58 -61.11,51.82 -62.85,50.77 -65.31,50.43"/>
    </edge>
    <edge id=":j10_16" function="internal">
        <lane id=":j10_16_0" index="0" speed="13.89" length="20.97" shape="-59.81,56.05 -59.80,35.17"/>
        <lane id=":j10_16_1" index="1" speed="13.89" length="20.97" shape="-56.61,56.13 -56.60,35.08"/>
    </edge>
    <edge id=":j10_18" function="internal">
        <lane id=":j10_18_0" index="0" speed="9.36" length="19.47" shape="-56.61,56.13 -55.73,50.81 -53.41,47.02 -49.65,44.76 -44.45,44.03"/>
    </edge>
    <edge id=":j10_19" function="internal">
        <lane id=":j10_19_0" index="0" speed="3.65" length="4.67" shape="-56.61,56.13 -55.78,54.96 -54.97,54.58 -54.18,55.00 -53.42,56.22"/>
    </edge>
    <edge id=":j11_0" function="internal">
        <lane id=":j11_0_0" index="0" speed="13.89" length="20.88" shape="99.99,51.19 79.09,51.16"/>
        <lane id=":j11_0_1" index="1" speed="13.89" length="20.88" shape="99.98,47.99 79.11,47.96"/>
    </edge>
    <edge id=":j11_2" function="internal">
        <lane id=":j11_2_0" index="0" speed="9.35" length="5.05" shape="99.98,47.99 94.99,47.28"/>
    </edge>
    <edge id=":j11_3" function="internal">
        <lane id=":j11_3_0" index="0" speed="3.65" length="1.44" shape="99.98,47.99 98.78,47.20"/>
    </edge>
    <edge id=":j11_11" function="internal">
        <lane id=":j11_11_0" index="0" speed="9.35" length="14.41" shape="94.99,47.28 94.79,47.25 91.04,44.98 88.73,41.19 87.87,35.87"/>
    </edge>
    <edge id=":j11_12" function="internal">
        <lane id=":j11_12_0" index="0" speed="3.65" length="3.23" shape="98.78,47.20 98.38,46.40 98.78,45.60 99.98,44.79"/>
    </edge>
    <edge id=":j11_4" function="internal">
        <lane id=":j11_4_0" index="0" speed="6.64" length="9.29" shape="94.27,35.72 94.67,38.30 95.76,40.13 97.52,41.23 99.97,41.59"/>
    </edge>
    <edge id=":j11_5" function="internal">
        <lane id=":j11_5_0" index="0" speed="9.21" length="19.57" shape="91.07,35.80 90.42,41.15 88.22,44.95 84.45,47.22 79.11,47.96"/>
    </edge>
    <edge id=":j11_6" function="internal">
        <lane id=":j11_6_0" index="0" speed="3.65" length="4.67" shape="91.07,35.80 90.29,37.02 89.50,37.43 88.69,37.05 87.87,35.87"/>
    </edge>
    <edge id=":j11_7" function="internal">
        <lane id=":j11_7_0" index="0" speed="6.45" length="9.03" shape="79.15,41.56 81.61,41.22 83.35,40.17 84.37,38.41 84.67,35.95"/>
    </edge>
    <edge id=":j11_8" function="internal">
        <lane id=":j11_8_0" index="0" speed="13.89" length="20.83" shape="79.15,41.56 99.97,41.59"/>
        <lane id=":j11_8_1" index="1" speed="13.89" length="20.83" shape="79.13,44.76 99.98,44.79"/>
    </edge>
    <edge id=":j11_10" function="internal">
        <lane id=":j11_10_0" index="0" speed="3.65" length="1.44" shape="79.13,44.76 80.33,45.56"/>
    </edge>
    <edge id=":j11_13" function="internal">
        <lane id=":j11_13_0" index="0" speed="3.65" length="3.23" shape="80.33,45.56 80.72,46.37 80.32,47.16 79.11,47.96"/>
    </edge>
    <edge id=":j12_0" function="internal">
        <lane id=":j12_0_0" index="0" speed="6.66" length="9.35" shape="274.01,50.64 271.49,51.03 269.69,52.14 268.59,53.96 268.21,56.49"/>
    </edge>
    <edge id=":j12_1" function="internal">
        <lane id=":j12_1_0" index="0" speed="13.89" length="20.96" shape="274.01,50.64 253.04,50.81"/>
        <lane id=":j12_1_1" index="1" speed="13.89" length="20.96" shape="273.97,47.44 253.03,47.61"/>
    </edge>
    <edge id=":j12_3" function="internal">
        <lane id=":j12_3_0" index="0" speed="9.25" length="5.16" shape="273.97,47.44 268.85,46.78"/>
    </edge>
    <edge id=":j12_4" function="internal">
        <lane id=":j12_4_0" index="0" speed="3.65" length="1.44" shape="273.97,47.44 272.76,46.65"/>
    </edge>
    <edge id=":j12_20" function="internal">
        <lane id=":j12_20_0" index="0" speed="9.25" length="14.25" shape="268.85,46.78 268.69,46.76 264.91,44.55 262.62,40.81 261.84,35.54"/>
    </edge>
    <edge id=":j12_21" function="internal">
        <lane id=":j12_21_0" index="0" speed="3.65" length="3.23" shape="272.76,46.65 272.35,45.86 272.74,45.05 273.93,44.24"/>
    </edge>
    <edge id=":j12_5" function="internal">
        <lane id=":j12_5_0" index="0" speed="6.49" length="9.03" shape="268.24,35.50 268.60,37.95 269.67,39.69 271.43,40.72 273.88,41.04"/>
    </edge>
    <edge id=":j12_6" function="internal">
        <lane id=":j12_6_0" index="0" speed="13.89" length="20.97" shape="268.24,35.50 268.21,56.49"/>
        <lane id=":j12_6_1" index="1" speed="13.89" length="20.97" shape="265.04,35.52 265.01,56.46"/>
    </edge>
    <edge id=":j12_8" function="internal">
        <lane id=":j12_8_0" index="0" speed="9.27" length="19.44" shape="265.04,35.52 264.31,40.80 262.07,44.57 258.31,46.84 253.03,47.61"/>
    </edge>
    <edge id=":j12_9" function="internal">
        <lane id=":j12_9_0" index="0" speed="3.65" length="4.67" shape="265.04,35.52 264.25,36.73 263.45,37.13 262.65,36.74 261.84,35.54"/>
    </edge>
    <edge id=":j12_10" function="internal">
        <lane id=":j12_10_0" index="0" speed="6.52" length="9.09" shape="253.02,41.21 255.49,40.85 257.25,39.79 258.30,38.02 258.64,35.56"/>
    </edge>
    <edge id=":j12_11" function="internal">
        <lane id=":j12_11_0" index="0" speed="13.89" length="20.88" shape="253.02,41.21 273.88,41.04"/>
        <lane id=":j12_11_1" index="1" speed="13.89" length="20.88" shape="253.02,44.41 273.93,44.24"/>
    </edge>
    <edge id=":j12_13" function="internal">
        <lane id=":j12_13_0" index="0" speed="9.24" length="4.83" shape="253.02,44.41 257.80,45.08"/>
    </edge>
    <edge id=":j12_14" function="internal">
        <lane id=":j12_14_0" index="0" speed="3.65" length="1.44" shape="253.02,44.41 254.23,45.20"/>
    </edge>
    <edge id=":j12_22" function="internal">
        <lane id=":j12_22_0" index="0" speed="9.24" length="14.61" shape="257.80,45.08 258.31,45.15 262.07,47.41 264.30,51.18 265.01,56.46"/>
    </edge>
    <edge id=":j12_23" function="internal">
        <lane id=":j12_23_0" index="0" speed="3.65" length="3.23" shape="254.23,45.20 254.63,46.00 254.23,46.80 253.03,47.61"/>
    </edge>
    <edge id=":j12_15" function="internal">
        <lane id=":j12_15_0" index="0" speed="6.48" length="9.03" shape="258.61,56.41 258.28,53.95 257.24,52.20 255.50,51.15 253.04,50.81"/>
    </edge>
    <edge id=":j12_16" function="internal">
        <lane id=":j12_16_0" index="0" speed="13.89" length="20.87" shape="258.61,56.41 258.64,35.56"/>
        <lane id=":j12_16_1" index="1" speed="13.89" length="20.87" shape="261.81,56.44 261.84,35.54"/>
    </edge>
    <edge id=":j12_18" function="internal">
        <lane id=":j12_18_0" index="0" speed="9.37" length="19.51" shape="261.81,56.44 262.61,51.16 264.89,47.37 268.66,45.06 273.93,44.24"/>
    </edge>
    <edge id=":j12_19" function="internal">
        <lane id=":j12_19_0" index="0" speed="3.65" length="4.67" shape="261.81,56.44 262.62,55.24 263.42,54.85 264.22,55.26 265.01,56.46"/>
    </edge>
    <edge id=":j13_0" function="internal">
        <lane id=":j13_0_0" index="0" speed="7.73" length="12.25" shape="584.49,49.08 581.93,48.94 579.64,50.06 577.61,52.42 575.84,56.04"/>
    </edge>
    <edge id=":j13_1" function="internal">
        <lane id=":j13_1_0" index="0" speed="13.89" length="22.39" shape="584.49,49.08 578.45,47.55 573.79,46.83 569.06,46.66 562.81,46.73"/>
        <lane id=":j13_1_1" index="1" speed="13.89" length="22.39" shape="585.36,46.00 579.18,44.45 574.21,43.69 569.16,43.48 562.77,43.53"/>
    </edge>
    <edge id=":j13_3" function="internal">
        <lane id=":j13_3_0" index="0" speed="9.38" length="18.83" shape="585.36,46.00 580.69,43.94 577.68,40.86 576.34,36.77 576.67,31.67"/>
    </edge>
    <edge id=":j13_4" function="internal">
        <lane id=":j13_4_0" index="0" speed="3.65" length="4.67" shape="585.36,46.00 584.42,44.90 584.26,44.02 584.86,43.36 586.23,42.92"/>
    </edge>
    <edge id=":j13_5" function="internal">
        <lane id=":j13_5_0" index="0" speed="6.67" length="9.03" shape="582.93,32.97 582.78,35.42 583.42,37.38 584.86,38.85 587.10,39.84"/>
    </edge>
    <edge id=":j13_6" function="internal">
        <lane id=":j13_6_0" index="0" speed="13.89" length="23.91" shape="582.93,32.97 581.47,39.39 579.98,44.68 578.18,49.88 575.84,56.04"/>
        <lane id=":j13_6_1" index="1" speed="13.89" length="23.91" shape="579.80,32.32 578.36,38.67 576.92,43.78 575.17,48.80 572.86,54.89"/>
    </edge>
    <edge id=":j13_8" function="internal">
        <lane id=":j13_8_0" index="0" speed="10.79" length="4.55" shape="579.80,32.32 578.12,36.55"/>
    </edge>
    <edge id=":j13_9" function="internal">
        <lane id=":j13_9_0" index="0" speed="3.65" length="1.44" shape="579.80,32.32 578.77,33.33"/>
    </edge>
    <edge id=":j13_20" function="internal">
        <lane id=":j13_20_0" index="0" speed="10.79" length="17.68" shape="578.12,36.55 577.88,37.15 574.40,40.63 569.36,42.76 562.77,43.53"/>
    </edge>
    <edge id=":j13_21" function="internal">
        <lane id=":j13_21_0" index="0" speed="3.65" length="3.23" shape="578.77,33.33 577.91,33.56 577.21,33.01 576.67,31.67"/>
    </edge>
    <edge id=":j13_10" function="internal">
        <lane id=":j13_10_0" index="0" speed="8.51" length="13.50" shape="562.68,37.13 566.96,36.70 570.20,35.54 572.39,33.65 573.53,31.02"/>
    </edge>
    <edge id=":j13_11" function="internal">
        <lane id=":j13_11_0" index="0" speed="13.89" length="24.22" shape="562.68,37.13 569.36,37.12 575.03,37.42 580.63,38.25 587.10,39.84"/>
        <lane id=":j13_11_1" index="1" speed="13.89" length="24.22" shape="562.72,40.33 569.26,40.30 574.62,40.56 579.90,41.35 586.23,42.92"/>
    </edge>
    <edge id=":j13_13" function="internal">
        <lane id=":j13_13_0" index="0" speed="8.85" length="22.70" shape="562.72,40.33 569.29,41.16 573.17,43.86 574.36,48.44 572.86,54.89"/>
    </edge>
    <edge id=":j13_14" function="internal">
        <lane id=":j13_14_0" index="0" speed="3.65" length="4.67" shape="562.72,40.33 563.94,41.12 564.35,41.91 563.96,42.72 562.77,43.53"/>
    </edge>
    <edge id=":j13_15" function="internal">
        <lane id=":j13_15_0" index="0" speed="5.84" length="9.13" shape="566.89,52.59 567.49,49.99 567.01,48.15 565.45,47.07 562.81,46.73"/>
    </edge>
    <edge id=":j13_16" function="internal">
        <lane id=":j13_16_0" index="0" speed="13.89" length="22.87" shape="566.89,52.59 569.16,46.66 570.80,41.98 572.14,37.21 573.53,31.02"/>
        <lane id=":j13_16_1" index="1" speed="13.89" length="22.87" shape="569.87,53.74 572.17,47.73 573.86,42.88 575.25,37.94 576.67,31.67"/>
    </edge>
    <edge id=":j13_18" function="internal">
        <lane id=":j13_18_0" index="0" speed="10.16" length="6.33" shape="569.87,53.74 572.77,48.11"/>
    </edge>
    <edge id=":j13_19" function="internal">
        <lane id=":j13_19_0" index="0" speed="3.65" length="1.44" shape="569.87,53.74 571.05,52.91"/>
    </edge>
    <edge id=":j13_22" function="internal">
        <lane id=":j13_22_0" index="0" speed="10.16" length="15.51" shape="572.77,48.11 572.91,47.84 576.65,44.07 581.09,42.43 586.23,42.92"/>
    </edge>
    <edge id=":j13_23" function="internal">
        <lane id=":j13_23_0" index="0" speed="3.65" length="3.23" shape="571.05,52.91 571.94,52.82 572.54,53.48 572.86,54.89"/>
    </edge>
    <edge id=":j14_0" function="internal">
        <lane id=":j14_0_0" index="0" speed="6.88" length="9.90" shape="960.07,151.72 957.17,152.10 955.09,153.17 953.81,154.92 953.33,157.34"/>
    </edge>
    <edge id=":j14_1" function="internal">
        <lane id=":j14_1_0" index="0" speed="13.89" length="23.60" shape="960.07,151.72 953.49,151.66 948.06,151.20 942.69,150.20 936.33,148.53"/>
        <lane id=":j14_1_1" index="1" speed="13.89" length="23.60" shape="960.02,148.52 953.59,148.48 948.47,148.06 943.42,147.10 937.20,145.45"/>
    </edge>
    <edge id=":j14_3" function="internal">
        <lane id=":j14_3_0" index="0" speed="9.15" length="20.59" shape="960.02,148.52 954.42,147.76 950.62,145.32 948.62,141.19 948.42,135.36"/>
    </edge>
    <edge id=":j14_4" function="internal">
        <lane id=":j14_4_0" index="0" speed="3.65" length="4.67" shape="960.02,148.52 958.81,147.74 958.40,146.94 958.79,146.14 959.98,145.32"/>
    </edge>
    <edge id=":j14_5" function="internal">
        <lane id=":j14_5_0" index="0" speed="6.36" length="9.36" shape="954.78,136.03 954.86,138.72 955.75,140.64 957.44,141.77 959.94,142.12"/>
    </edge>
    <edge id=":j14_6" function="internal">
        <lane id=":j14_6_0" index="0" speed="13.89" length="21.49" shape="954.78,136.03 953.33,157.34"/>
        <lane id=":j14_6_1" index="1" speed="13.89" length="21.49" shape="951.60,135.70 950.13,157.26"/>
    </edge>
    <edge id=":j14_8" function="internal">
        <lane id=":j14_8_0" index="0" speed="9.02" length="3.99" shape="951.60,135.70 950.62,139.56"/>
    </edge>
    <edge id=":j14_9" function="internal">
        <lane id=":j14_9_0" index="0" speed="3.65" length="1.44" shape="951.60,135.70 950.68,136.81"/>
    </edge>
    <edge id=":j14_20" function="internal">
        <lane id=":j14_20_0" index="0" speed="9.02" length="16.73" shape="950.62,139.56 950.17,141.34 947.30,144.85 942.97,146.22 937.20,145.45"/>
    </edge>
    <edge id=":j14_21" function="internal">
        <lane id=":j14_21_0" index="0" speed="3.65" length="3.23" shape="950.68,136.81 949.84,137.12 949.09,136.64 948.42,135.36"/>
    </edge>
    <edge id=":j14_10" function="internal">
        <lane id=":j14_10_0" index="0" speed="6.17" length="9.05" shape="938.94,139.30 941.46,139.63 943.35,139.03 944.61,137.50 945.23,135.03"/>
    </edge>
    <edge id=":j14_11" function="internal">
        <lane id=":j14_11_0" index="0" speed="13.89" length="21.77" shape="938.94,139.30 944.88,140.90 949.30,141.78 953.79,142.12 959.94,142.12"/>
        <lane id=":j14_11_1" index="1" speed="13.89" length="21.77" shape="938.07,142.37 944.15,144.00 948.88,144.92 953.69,145.30 959.98,145.32"/>
    </edge>
    <edge id=":j14_13" function="internal">
        <lane id=":j14_13_0" index="0" speed="10.61" length="20.83" shape="938.07,142.37 943.46,144.62 947.27,147.84 949.49,152.06 950.13,157.26"/>
    </edge>
    <edge id=":j14_14" function="internal">
        <lane id=":j14_14_0" index="0" speed="3.65" length="4.67" shape="938.07,142.37 939.01,143.47 939.18,144.35 938.57,145.01 937.20,145.45"/>
    </edge>
    <edge id=":j14_15" function="internal">
        <lane id=":j14_15_0" index="0" speed="8.26" length="12.29" shape="943.73,157.09 943.33,154.15 941.97,151.74 939.63,149.87 936.33,148.53"/>
    </edge>
    <edge id=":j14_16" function="internal">
        <lane id=":j14_16_0" index="0" speed="13.89" length="21.98" shape="943.73,157.09 945.23,135.03"/>
        <lane id=":j14_16_1" index="1" speed="13.89" length="21.98" shape="946.93,157.17 948.42,135.36"/>
    </edge>
    <edge id=":j14_18" function="internal">
        <lane id=":j14_18_0" index="0" speed="9.52" length="5.21" shape="946.93,157.17 947.86,152.05"/>
    </edge>
    <edge id=":j14_19" function="internal">
        <lane id=":j14_19_0" index="0" speed="3.65" length="1.44" shape="946.93,157.17 947.76,156.00"/>
    </edge>
    <edge id=":j14_22" function="internal">
        <lane id=":j14_22_0" index="0" speed="9.52" length="14.71" shape="947.86,152.05 950.35,148.37 954.39,146.12 959.98,145.32"/>
    </edge>
    <edge id=":j14_23" function="internal">
        <lane id=":j14_23_0" index="0" speed="3.65" length="3.23" shape="947.76,156.00 948.57,155.62 949.36,156.04 950.13,157.26"/>
    </edge>
    <edge id=":j15_0" function="internal">
        <lane id=":j15_0_0" index="0" speed="3.65" length="4.67" shape="1359.85,139.93 1361.06,140.71 1361.47,141.51 1361.08,142.31 1359.89,143.13"/>
    </edge>
    <edge id=":j16_0" function="internal">
        <lane id=":j16_0_0" index="0" speed="3.65" length="4.67" shape="-497.05,-248.02 -498.27,-248.79 -498.69,-249.58 -498.31,-250.39 -497.13,-251.22"/>
    </edge>
    <edge id=":j17_0" function="internal">
        <lane id=":j17_0_0" index="0" speed="6.55" length="9.14" shape="-67.12,-249.36 -67.53,-251.86 -68.63,-253.62 -70.40,-254.65 -72.86,-254.95"/>
    </edge>
    <edge id=":j17_1" function="internal">
        <lane id=":j17_1_0" index="0" speed="13.89" length="20.97" shape="-67.12,-249.36 -67.48,-270.35"/>
        <lane id=":j17_1_1" index="1" speed="13.89" length="20.97" shape="-63.92,-249.44 -64.28,-270.38"/>
    </edge>
    <edge id=":j17_3" function="internal">
        <lane id=":j17_3_0" index="0" speed="9.23" length="19.49" shape="-63.92,-249.44 -63.30,-254.76 -61.12,-258.57 -57.38,-260.88 -52.08,-261.68"/>
    </edge>
    <edge id=":j17_4" function="internal">
        <lane id=":j17_4_0" index="0" speed="3.65" length="4.67" shape="-63.92,-249.44 -63.15,-250.66 -62.36,-251.09 -61.55,-250.71 -60.72,-249.53"/>
    </edge>
    <edge id=":j17_5" function="internal">
        <lane id=":j17_5_0" index="0" speed="6.47" length="9.03" shape="-52.04,-255.28 -54.49,-254.91 -56.22,-253.84 -57.23,-252.07 -57.52,-249.61"/>
    </edge>
    <edge id=":j17_6" function="internal">
        <lane id=":j17_6_0" index="0" speed="13.89" length="20.85" shape="-52.04,-255.28 -72.86,-254.95"/>
        <lane id=":j17_6_1" index="1" speed="13.89" length="20.85" shape="-52.06,-258.48 -72.94,-258.15"/>
    </edge>
    <edge id=":j17_8" function="internal">
        <lane id=":j17_8_0" index="0" speed="9.28" length="4.79" shape="-52.06,-258.48 -56.81,-259.11"/>
    </edge>
    <edge id=":j17_9" function="internal">
        <lane id=":j17_9_0" index="0" speed="3.65" length="1.44" shape="-52.06,-258.48 -53.27,-259.27"/>
    </edge>
    <edge id=":j17_20" function="internal">
        <lane id=":j17_20_0" index="0" speed="9.28" length="14.65" shape="-56.81,-259.11 -57.37,-259.19 -61.17,-261.41 -63.48,-265.14 -64.28,-270.38"/>
    </edge>
    <edge id=":j17_21" function="internal">
        <lane id=":j17_21_0" index="0" speed="3.65" length="3.23" shape="-53.27,-259.27 -53.67,-260.07 -53.28,-260.87 -52.08,-261.68"/>
    </edge>
    <edge id=":j17_10" function="internal">
        <lane id=":j17_10_0" index="0" speed="6.54" length="9.13" shape="-57.88,-270.43 -57.50,-267.99 -56.41,-266.25 -54.62,-265.21 -52.11,-264.88"/>
    </edge>
    <edge id=":j17_11" function="internal">
        <lane id=":j17_11_0" index="0" speed="13.89" length="20.86" shape="-57.88,-270.43 -57.52,-249.61"/>
        <lane id=":j17_11_1" index="1" speed="13.89" length="20.86" shape="-61.08,-270.41 -60.72,-249.53"/>
    </edge>
    <edge id=":j17_13" function="internal">
        <lane id=":j17_13_0" index="0" speed="9.32" length="19.38" shape="-61.08,-270.41 -61.78,-265.15 -63.99,-261.36 -67.71,-259.03 -72.94,-258.15"/>
    </edge>
    <edge id=":j17_14" function="internal">
        <lane id=":j17_14_0" index="0" speed="3.65" length="4.67" shape="-61.08,-270.41 -61.87,-269.20 -62.66,-268.79 -63.47,-269.19 -64.28,-270.38"/>
    </edge>
    <edge id=":j17_15" function="internal">
        <lane id=":j17_15_0" index="0" speed="6.59" length="9.17" shape="-73.09,-264.55 -70.62,-264.96 -68.86,-266.07 -67.81,-267.86 -67.48,-270.35"/>
    </edge>
    <edge id=":j17_16" function="internal">
        <lane id=":j17_16_0" index="0" speed="13.89" length="20.96" shape="-73.09,-264.55 -52.11,-264.88"/>
        <lane id=":j17_16_1" index="1" speed="13.89" length="20.96" shape="-73.01,-261.35 -52.08,-261.68"/>
    </edge>
    <edge id=":j17_18" function="internal">
        <lane id=":j17_18_0" index="0" speed="9.28" length="5.15" shape="-73.01,-261.35 -67.90,-260.74"/>
    </edge>
    <edge id=":j17_19" function="internal">
        <lane id=":j17_19_0" index="0" speed="3.65" length="1.44" shape="-73.01,-261.35 -71.79,-260.58"/>
    </edge>
    <edge id=":j17_22" function="internal">
        <lane id=":j17_22_0" index="0" speed="9.28" length="14.29" shape="-67.90,-260.74 -67.75,-260.72 -63.95,-258.54 -61.61,-254.81 -60.72,-249.53"/>
    </edge>
    <edge id=":j17_23" function="internal">
        <lane id=":j17_23_0" index="0" speed="3.65" length="3.23" shape="-71.79,-260.58 -71.38,-259.79 -71.76,-258.98 -72.94,-258.15"/>
    </edge>
    <edge id=":j18_0" function="internal">
        <lane id=":j18_0_0" index="0" speed="6.56" length="9.08" shape="78.07,-250.61 77.67,-253.08 76.58,-254.83 74.82,-255.88 72.37,-256.21"/>
    </edge>
    <edge id=":j18_1" function="internal">
        <lane id=":j18_1_0" index="0" speed="9.26" length="19.32" shape="81.27,-250.68 81.90,-255.94 84.05,-259.73 87.74,-262.07 92.96,-262.95"/>
    </edge>
    <edge id=":j18_2" function="internal">
        <lane id=":j18_2_0" index="0" speed="3.65" length="4.67" shape="81.27,-250.68 82.04,-251.90 82.83,-252.32 83.64,-251.94 84.47,-250.75"/>
    </edge>
    <edge id=":j18_3" function="internal">
        <lane id=":j18_3_0" index="0" speed="6.51" length="9.02" shape="93.12,-256.56 90.69,-256.14 88.97,-255.05 87.96,-253.28 87.67,-250.83"/>
    </edge>
    <edge id=":j18_4" function="internal">
        <lane id=":j18_4_0" index="0" speed="13.89" length="20.72" shape="93.12,-256.56 72.37,-256.21"/>
        <lane id=":j18_4_1" index="1" speed="13.89" length="20.72" shape="93.04,-259.75 72.35,-259.41"/>
    </edge>
    <edge id=":j18_6" function="internal">
        <lane id=":j18_6_0" index="0" speed="3.65" length="1.44" shape="93.04,-259.75 91.82,-260.52"/>
    </edge>
    <edge id=":j18_11" function="internal">
        <lane id=":j18_11_0" index="0" speed="3.65" length="3.23" shape="91.82,-260.52 91.40,-261.31 91.78,-262.12 92.96,-262.95"/>
    </edge>
    <edge id=":j18_7" function="internal">
        <lane id=":j18_7_0" index="0" speed="13.89" length="20.61" shape="72.30,-265.81 92.88,-266.15"/>
        <lane id=":j18_7_1" index="1" speed="13.89" length="20.61" shape="72.33,-262.61 92.96,-262.95"/>
    </edge>
    <edge id=":j18_9" function="internal">
        <lane id=":j18_9_0" index="0" speed="9.30" length="4.70" shape="72.33,-262.61 76.99,-261.98"/>
    </edge>
    <edge id=":j18_10" function="internal">
        <lane id=":j18_10_0" index="0" speed="3.65" length="1.44" shape="72.33,-262.61 73.53,-261.82"/>
    </edge>
    <edge id=":j18_12" function="internal">
        <lane id=":j18_12_0" index="0" speed="9.30" length="14.58" shape="76.99,-261.98 77.54,-261.91 81.30,-259.69 83.61,-255.98 84.47,-250.75"/>
    </edge>
    <edge id=":j18_13" function="internal">
        <lane id=":j18_13_0" index="0" speed="3.65" length="3.23" shape="73.53,-261.82 73.94,-261.02 73.54,-260.22 72.35,-259.41"/>
    </edge>
    <edge id=":j19_0" function="internal">
        <lane id=":j19_0_0" index="0" speed="6.46" length="9.03" shape="256.92,-255.10 256.56,-257.55 255.49,-259.28 253.72,-260.29 251.26,-260.58"/>
    </edge>
    <edge id=":j19_1" function="internal">
        <lane id=":j19_1_0" index="0" speed="13.89" length="20.85" shape="256.92,-255.10 256.65,-275.92"/>
        <lane id=":j19_1_1" index="1" speed="13.89" length="20.85" shape="260.12,-255.11 259.84,-275.98"/>
    </edge>
    <edge id=":j19_3" function="internal">
        <lane id=":j19_3_0" index="0" speed="9.26" length="4.80" shape="260.12,-255.11 260.77,-259.87"/>
    </edge>
    <edge id=":j19_4" function="internal">
        <lane id=":j19_4_0" index="0" speed="3.65" length="1.44" shape="260.12,-255.11 260.92,-256.32"/>
    </edge>
    <edge id=":j19_20" function="internal">
        <lane id=":j19_20_0" index="0" speed="9.26" length="14.67" shape="260.77,-259.87 260.84,-260.42 263.08,-264.21 266.84,-266.48 272.11,-267.24"/>
    </edge>
    <edge id=":j19_21" function="internal">
        <lane id=":j19_21_0" index="0" speed="3.65" length="3.23" shape="260.92,-256.32 261.71,-256.72 262.52,-256.33 263.32,-255.13"/>
    </edge>
    <edge id=":j19_5" function="internal">
        <lane id=":j19_5_0" index="0" speed="6.51" length="9.10" shape="272.10,-260.84 269.65,-260.48 267.90,-259.42 266.86,-257.64 266.52,-255.15"/>
    </edge>
    <edge id=":j19_6" function="internal">
        <lane id=":j19_6_0" index="0" speed="13.89" length="20.89" shape="272.10,-260.84 251.26,-260.58"/>
        <lane id=":j19_6_1" index="1" speed="13.89" length="20.89" shape="272.10,-264.04 251.18,-263.78"/>
    </edge>
    <edge id=":j19_8" function="internal">
        <lane id=":j19_8_0" index="0" speed="9.35" length="19.43" shape="272.10,-264.04 266.83,-264.79 263.03,-267.03 260.70,-270.76 259.84,-275.98"/>
    </edge>
    <edge id=":j19_9" function="internal">
        <lane id=":j19_9_0" index="0" speed="3.65" length="4.67" shape="272.10,-264.04 270.91,-264.84 270.51,-265.64 270.91,-266.44 272.11,-267.24"/>
    </edge>
    <edge id=":j19_10" function="internal">
        <lane id=":j19_10_0" index="0" speed="6.64" length="9.27" shape="266.24,-276.12 266.65,-273.63 267.77,-271.86 269.59,-270.79 272.11,-270.44"/>
    </edge>
    <edge id=":j19_11" function="internal">
        <lane id=":j19_11_0" index="0" speed="13.89" length="20.94" shape="266.24,-276.12 266.52,-255.15"/>