<net xmlns:xsi="http://www.w3.org/2001/XMLSchema-instance" junctionCornerDetail="5" limitTurnSpeed="5.50" version="1.20" xsi:noNamespaceSchemaLocation="http://sumo.dlr.de/xsd/net_file.xsd">

    <location convBoundary="-501.76,-960.90,1415.48,659.27" netOffset="0.00,0.00" origBoundary="-10000000000.00,-10000000000.00,10000000000.00,10000000000.00" projParameter="!" />

    <edge function="internal" id=":j1_0">
        <lane id=":j1_0_0" index="0" length="4.67" shape="-328.42,660.28 -329.79,660.71 -330.67,660.51 -331.04,659.70 -330.90,658.26" speed="3.65" />
    </edge>
    <edge function="internal" id=":j10_0">
        <lane id=":j10_0_0" index="0" length="9.45" shape="-41.38,53.65 -43.82,54.01 -45.59,55.14 -46.69,57.04 -47.11,59.70" speed="6.69" />
    </edge>
    <edge function="internal" id=":j10_1">
        <lane id=":j10_1_0" index="0" length="27.26" shape="-41.38,53.65 -68.60,53.65" speed="13.89" />
        <lane id=":j10_1_1" index="1" length="27.26" shape="-41.36,50.45 -68.62,50.45" speed="13.89" />
        <lane id=":j10_1_2" index="2" length="27.26" shape="-41.34,47.25 -68.64,47.25" speed="13.89" />
    </edge>
    <edge function="internal" id=":j10_4">
        <lane id=":j10_4_0" index="0" length="4.73" shape="-41.34,47.25 -46.02,46.54" speed="10.51" />
    </edge>
    <edge function="internal" id=":j10_5">
        <lane id=":j10_5_0" index="0" length="1.44" shape="-41.34,47.25 -42.53,46.44" speed="3.65" />
    </edge>
    <edge function="internal" id=":j10_24">
        <lane id=":j10_24_0" index="0" length="19.91" shape="-46.02,46.54 -47.90,46.25 -52.65,43.35 -55.58,38.54 -56.68,31.82" speed="10.51" />
    </edge>
    <edge function="internal" id=":j10_25">
        <lane id=":j10_25_0" index="0" length="3.23" shape="-42.53,46.44 -42.93,45.64 -42.53,44.84 -41.32,44.05" speed="3.65" />
    </edge>
    <edge function="internal" id=":j10_6">
        <lane id=":j10_6_0" index="0" length="9.51" shape="-47.09,31.57 -46.67,34.22 -45.56,36.11 -43.76,37.26 -41.28,37.65" speed="6.74" />
    </edge>
    <edge function="internal" id=":j10_7">
        <lane id=":j10_7_0" index="0" length="27.96" shape="-47.09,31.57 -47.11,59.70" speed="13.89" />
        <lane id=":j10_7_1" index="1" length="27.96" shape="-50.29,31.66 -50.31,59.61" speed="13.89" />
        <lane id=":j10_7_2" index="2" length="27.96" shape="-53.49,31.74 -53.50,59.52" speed="13.89" />
    </edge>
    <edge function="internal" id=":j10_10">
        <lane id=":j10_10_0" index="0" length="24.84" shape="-53.49,31.74 -54.28,38.49 -57.07,43.33 -61.86,46.25 -68.64,47.25" speed="10.35" />
    </edge>
    <edge function="internal" id=":j10_11">
        <lane id=":j10_11_0" index="0" length="4.67" shape="-53.49,31.74 -54.25,32.96 -55.04,33.38 -55.85,33.00 -56.68,31.82" speed="3.65" />
    </edge>
    <edge function="internal" id=":j10_12">
        <lane id=":j10_12_0" index="0" length="9.13" shape="-68.69,37.65 -66.18,37.28 -64.41,36.22 -63.38,34.45 -63.08,31.98" speed="6.49" />
    </edge>
    <edge function="internal" id=":j10_13">
        <lane id=":j10_13_0" index="0" length="27.37" shape="-68.69,37.65 -41.28,37.65" speed="13.89" />
        <lane id=":j10_13_1" index="1" length="27.37" shape="-68.67,40.85 -41.30,40.85" speed="13.89" />
        <lane id=":j10_13_2" index="2" length="27.37" shape="-68.65,44.05 -41.32,44.05" speed="13.89" />
    </edge>
    <edge function="internal" id=":j10_16">
        <lane id=":j10_16_0" index="0" length="5.19" shape="-68.65,44.05 -63.51,44.76" speed="10.32" />
    </edge>
    <edge function="internal" id=":j10_17">
        <lane id=":j10_17_0" index="0" length="1.44" shape="-68.65,44.05 -67.45,44.84" speed="3.65" />
    </edge>
    <edge function="internal" id=":j10_26">
        <lane id=":j10_26_0" index="0" length="19.69" shape="-63.51,44.76 -61.87,44.98 -57.08,47.87 -54.29,52.72 -53.50,59.52" speed="10.32" />
    </edge>
    <edge function="internal" id=":j10_27">
        <lane id=":j10_27_0" index="0" length="3.23" shape="-67.45,44.84 -67.05,45.64 -67.44,46.44 -68.64,47.25" speed="3.65" />
    </edge>
    <edge function="internal" id=":j10_18">
        <lane id=":j10_18_0" index="0" length="9.03" shape="-63.10,59.27 -63.39,56.80 -64.40,55.04 -66.14,53.99 -68.60,53.65" speed="6.44" />
    </edge>
    <edge function="internal" id=":j10_19">
        <lane id=":j10_19_0" index="0" length="27.45" shape="-63.10,59.27 -63.08,31.98" speed="13.89" />
        <lane id=":j10_19_1" index="1" length="27.45" shape="-59.90,59.35 -59.88,31.90" speed="13.89" />
        <lane id=":j10_19_2" index="2" length="27.45" shape="-56.70,59.44 -56.68,31.82" speed="13.89" />
    </edge>
    <edge function="internal" id=":j10_22">
        <lane id=":j10_22_0" index="0" length="24.70" shape="-56.70,59.44 -55.59,52.67 -52.65,47.85 -47.89,44.98 -41.32,44.05" speed="10.48" />
    </edge>
    <edge function="internal" id=":j10_23">
        <lane id=":j10_23_0" index="0" length="4.67" shape="-56.70,59.44 -55.87,58.26 -55.06,57.88 -54.27,58.30 -53.50,59.52" speed="3.65" />
    </edge>
    <edge function="internal" id=":j11_0">
        <lane id=":j11_0_0" index="0" length="27.33" shape="103.14,54.39 75.78,54.34" speed="13.89" />
        <lane id=":j11_0_1" index="1" length="27.33" shape="103.13,51.19 75.80,51.14" speed="13.89" />
        <lane id=":j11_0_2" index="2" length="27.33" shape="103.12,47.99 75.82,47.94" speed="13.89" />
    </edge>
    <edge function="internal" id=":j11_3">
        <lane id=":j11_3_0" index="0" length="6.11" shape="103.12,47.99 97.05,47.27" speed="10.99" />
        <lane id=":j11_3_1" index="1" length="5.02" shape="103.12,47.99 98.15,47.27" speed="10.47" />
    </edge>
    <edge function="internal" id=":j11_5">
        <lane id=":j11_5_0" index="0" length="1.44" shape="103.12,47.99 101.92,47.19" speed="3.65" />
    </edge>
    <edge function="internal" id=":j11_15">
        <lane id=":j11_15_0" index="0" length="21.13" shape="97.05,47.27 95.15,47.04 89.40,44.18 85.88,39.38 84.59,32.65" speed="10.99" />
    </edge>
    <edge function="internal" id=":j11_16">
        <lane id=":j11_16_0" index="0" length="19.65" shape="98.15,47.27 96.55,47.04 91.80,44.15 88.88,39.33 87.79,32.58" speed="10.47" />
    </edge>
    <edge function="internal" id=":j11_17">
        <lane id=":j11_17_0" index="0" length="3.23" shape="101.92,47.19 101.52,46.39 101.91,45.59 103.11,44.79" speed="3.65" />
    </edge>
    <edge function="internal" id=":j11_6">
        <lane id=":j11_6_0" index="0" length="9.42" shape="97.39,32.36 97.80,35.00 98.88,36.89 100.65,38.01 103.10,38.39" speed="6.68" />
    </edge>
    <edge function="internal" id=":j11_7">
        <lane id=":j11_7_0" index="0" length="30.11" shape="94.19,32.43 93.20,40.66 89.81,46.52 84.01,50.01 75.80,51.14" speed="11.32" />
        <lane id=":j11_7_1" index="1" length="24.84" shape="90.99,32.51 90.18,39.29 87.38,44.13 82.59,47.01 75.82,47.94" speed="10.32" />
    </edge>
    <edge function="internal" id=":j11_9">
        <lane id=":j11_9_0" index="0" length="4.67" shape="90.99,32.51 90.22,33.72 89.43,34.14 88.62,33.76 87.79,32.58" speed="3.65" />
    </edge>
    <edge function="internal" id=":j11_10">
        <lane id=":j11_10_0" index="0" length="9.03" shape="75.88,38.34 78.34,38.00 80.08,36.95 81.10,35.19 81.39,32.73" speed="6.45" />
    </edge>
    <edge function="internal" id=":j11_11">
        <lane id=":j11_11_0" index="0" length="27.25" shape="75.88,38.34 103.10,38.39" speed="13.89" />
        <lane id=":j11_11_1" index="1" length="27.25" shape="75.86,41.54 103.10,41.59" speed="13.89" />
        <lane id=":j11_11_2" index="2" length="27.25" shape="75.84,44.74 103.11,44.79" speed="13.89" />
    </edge>
    <edge function="internal" id=":j11_14">
        <lane id=":j11_14_0" index="0" length="1.44" shape="75.84,44.74 77.03,45.55" speed="3.65" />
    </edge>
    <edge function="internal" id=":j11_18">
        <lane id=":j11_18_0" index="0" length="3.23" shape="77.03,45.55 77.43,46.35 77.02,47.15 75.82,47.94" speed="3.65" />
    </edge>
    <edge function="internal" id=":j12_0">
        <lane id=":j12_0_0" index="0" length="9.52" shape="277.28,53.79 274.72,54.20 272.88,55.32 271.77,57.18 271.38,59.76" speed="6.71" />
    </edge>
    <edge function="internal" id=":j12_1">
        <lane id=":j12_1_0" index="0" length="27.42" shape="277.24,50.59 249.81,50.81" speed="13.89" />
        <lane id=":j12_1_1" index="1" length="27.42" shape="277.19,47.39 249.80,47.61" speed="13.89" />
    </edge>
    <edge function="internal" id=":j12_3">
        <lane id=":j12_3_0" index="0" length="5.20" shape="277.19,47.39 272.03,46.73" speed="10.35" />
    </edge>
    <edge function="internal" id=":j12_4">
        <lane id=":j12_4_0" index="0" length="1.44" shape="277.19,47.39 275.98,46.61" speed="3.65" />
    </edge>
    <edge function="internal" id=":j12_20">
        <lane id=":j12_20_0" index="0" length="19.40" shape="272.03,46.73 270.50,46.53 265.71,43.73 262.81,38.99 261.82,32.32" speed="10.35" />
    </edge>
    <edge function="internal" id=":j12_21">
        <lane id=":j12_21_0" index="0" length="3.23" shape="275.98,46.61 275.57,45.82 275.96,45.01 277.15,44.20" speed="3.65" />
    </edge>
    <edge function="internal" id=":j12_5">
        <lane id=":j12_5_0" index="0" length="9.03" shape="271.42,32.26 271.78,34.71 272.85,36.45 274.61,37.48 277.06,37.80" speed="6.49" />
    </edge>
    <edge function="internal" id=":j12_6">
        <lane id=":j12_6_0" index="0" length="27.43" shape="268.22,32.28 268.18,59.73" speed="13.89" />
        <lane id=":j12_6_1" index="1" length="27.43" shape="265.02,32.30 264.98,59.70" speed="13.89" />
    </edge>
    <edge function="internal" id=":j12_8">
        <lane id=":j12_8_0" index="0" length="5.26" shape="265.02,32.30 264.30,37.51" speed="10.38" />
    </edge>
    <edge function="internal" id=":j12_9">
        <lane id=":j12_9_0" index="0" length="1.44" shape="265.02,32.30 264.23,33.50" speed="3.65" />
    </edge>
    <edge function="internal" id=":j12_22">
        <lane id=":j12_22_0" index="0" length="19.39" shape="264.30,37.51 264.10,38.98 261.26,43.77 256.49,46.64 249.80,47.61" speed="10.38" />
    </edge>
    <edge function="internal" id=":j12_23">
        <lane id=":j12_23_0" index="0" length="3.23" shape="264.23,33.50 263.43,33.91 262.63,33.51 261.82,32.32" speed="3.65" />
    </edge>
    <edge function="internal" id=":j12_10">
        <lane id=":j12_10_0" index="0" length="9.12" shape="249.77,38.01 252.26,37.66 254.02,36.59 255.08,34.83 255.42,32.35" speed="6.53" />
    </edge>
    <edge function="internal" id=":j12_11">
        <lane id=":j12_11_0" index="0" length="27.35" shape="249.78,41.21 277.11,41.00" speed="13.89" />
        <lane id=":j12_11_1" index="1" length="27.35" shape="249.79,44.41 277.15,44.20" speed="13.89" />
    </edge>
    <edge function="internal" id=":j12_13">
        <lane id=":j12_13_0" index="0" length="4.83" shape="249.79,44.41 254.57,45.09" speed="10.35" />
    </edge>
    <edge function="internal" id=":j12_14">
        <lane id=":j12_14_0" index="0" length="1.44" shape="249.79,44.41 250.99,45.21" speed="3.65" />
    </edge>
    <edge function="internal" id=":j12_24">
        <lane id=":j12_24_0" index="0" length="19.81" shape="254.57,45.09 256.49,45.36 261.25,48.22 264.08,53.00 264.98,59.70" speed="10.35" />
    </edge>
    <edge function="internal" id=":j12_25">
        <lane id=":j12_25_0" index="0" length="3.23" shape="250.99,45.21 251.39,46.01 250.99,46.81 249.80,47.61" speed="3.65" />
    </edge>
    <edge function="internal" id=":j12_15">
        <lane id=":j12_15_0" index="0" length="9.03" shape="255.38,59.62 255.05,57.16 254.01,55.41 252.27,54.36 249.81,54.01" speed="6.48" />
    </edge>
    <edge function="internal" id=":j12_16">
        <lane id=":j12_16_0" index="0" length="27.33" shape="258.58,59.65 258.62,32.34" speed="13.89" />
        <lane id=":j12_16_1" index="1" length="27.33" shape="261.78,59.67 261.82,32.32" speed="13.89" />
    </edge>
    <edge function="internal" id=":j12_18">
        <lane id=":j12_18_0" index="0" length="4.80" shape="261.78,59.67 262.50,54.92" speed="10.50" />
    </edge>
    <edge function="internal" id=":j12_19">
        <lane id=":j12_19_0" index="0" length="1.44" shape="261.78,59.67 262.59,58.48" speed="3.65" />
    </edge>
    <edge function="internal" id=":j12_26">
        <lane id=":j12_26_0" index="0" length="19.95" shape="262.50,54.92 262.79,52.98 265.69,48.17 270.48,45.24 277.15,44.20" speed="10.50" />
    </edge>
    <edge function="internal" id=":j12_27">
        <lane id=":j12_27_0" index="0" length="3.23" shape="262.59,58.48 263.40,58.09 264.19,58.49 264.98,59.70" speed="3.65" />
    </edge>
    <edge function="internal" id=":j13_0">
        <lane id=":j13_0_0" index="0" length="13.93" shape="586.49,52.97 583.86,52.93 581.43,54.36 579.18,57.25 577.12,61.61" speed="8.21" />
    </edge>
    <edge function="internal" id=":j13_1">
        <lane id=":j13_1_0" index="0" length="30.10" shape="587.36,49.89 578.88,47.69 572.93,46.77 566.87,46.63 558.08,46.80" speed="13.89" />
        <lane id=":j13_1_1" index="1" length="30.10" shape="588.23,46.81 579.53,44.56 573.34,43.60 567.05,43.44 558.04,43.60" speed="13.89" />
    </edge>
    <edge function="internal" id=":j13_3">
        <lane id=":j13_3_0" index="0" length="4.35" shape="588.23,46.81 584.25,45.05" speed="10.48" />
    </edge>
    <edge function="internal" id=":j13_4">
        <lane id=":j13_4_0" index="0" length="1.44" shape="588.23,46.81 587.29,45.71" speed="3.65" />
    </edge>
    <edge function="internal" id=":j13_20">
        <lane id=":j13_20_0" index="0" length="19.38" shape="584.25,45.05 582.34,44.21 578.55,40.33 576.86,35.18 577.27,28.75" speed="10.48" />
    </edge>
    <edge function="internal" id=":j13_21">
        <lane id=":j13_21_0" index="0" length="3.23" shape="587.29,45.71 587.13,44.84 587.73,44.17 589.10,43.73" speed="3.65" />
    </edge>
    <edge function="internal" id=":j13_5">
        <lane id=":j13_5_0" index="0" length="9.03" shape="586.67,30.70 586.52,33.15 587.16,35.11 588.60,36.58 590.84,37.57" speed="6.67" />
    </edge>
    <edge function="internal" id=":j13_6">
        <lane id=":j13_6_0" index="0" length="31.62" shape="583.54,30.05 581.54,39.03 579.72,45.51 577.46,51.87 574.14,60.46" speed="13.89" />
        <lane id=":j13_6_1" index="1" length="31.62" shape="580.41,29.40 578.43,38.30 576.66,44.61 574.45,50.79 571.15,59.30" speed="13.89" />
    </edge>
    <edge function="internal" id=":j13_8">
        <lane id=":j13_8_0" index="0" length="4.25" shape="580.41,29.40 578.81,33.34" speed="12.24" />
    </edge>
    <edge function="internal" id=":j13_9">
        <lane id=":j13_9_0" index="0" length="1.44" shape="580.41,29.40 579.38,30.41" speed="3.65" />
    </edge>
    <edge function="internal" id=":j13_22">
        <lane id=":j13_22_0" index="0" length="24.59" shape="578.81,33.34 577.92,35.51 573.37,39.92 566.74,42.61 558.04,43.60" speed="12.24" />
    </edge>
    <edge function="internal" id=":j13_23">
        <lane id=":j13_23_0" index="0" length="3.23" shape="579.38,30.41 578.51,30.64 577.81,30.09 577.27,28.75" speed="3.65" />
    </edge>
    <edge function="internal" id=":j13_10">
        <lane id=":j13_10_0" index="0" length="15.79" shape="557.91,34.00 563.14,33.53 567.07,32.28 569.69,30.26 571.01,27.45" speed="9.17" />
    </edge>
    <edge function="internal" id=":j13_11">
        <lane id=":j13_11_0" index="0" length="31.93" shape="557.95,37.20 567.25,37.08 574.17,37.32 580.99,38.36 589.97,40.65" speed="13.89" />
        <lane id=":j13_11_1" index="1" length="31.93" shape="557.99,40.40 567.15,40.26 573.76,40.46 580.26,41.46 589.10,43.73" speed="13.89" />
    </edge>
    <edge function="internal" id=":j13_13">
        <lane id=":j13_13_0" index="0" length="4.34" shape="557.99,40.40 562.29,41.03" speed="9.91" />
    </edge>
    <edge function="internal" id=":j13_14">
        <lane id=":j13_14_0" index="0" length="1.44" shape="557.99,40.40 559.20,41.18" speed="3.65" />
    </edge>
    <edge function="internal" id=":j13_24">
        <lane id=":j13_24_0" index="0" length="24.50" shape="562.29,41.03 566.10,41.60 571.10,45.31 572.84,51.29 571.15,59.30" speed="9.91" />
    </edge>
    <edge function="internal" id=":j13_25">
        <lane id=":j13_25_0" index="0" length="3.23" shape="559.20,41.18 559.61,41.97 559.22,42.78 558.04,43.60" speed="3.65" />
    </edge>
    <edge function="internal" id=":j13_15">
        <lane id=":j13_15_0" index="0" length="9.13" shape="562.20,55.85 562.80,53.26 562.32,51.42 560.76,50.33 558.12,50.00" speed="5.84" />
    </edge>
    <edge function="internal" id=":j13_16">
        <lane id=":j13_16_0" index="0" length="30.58" shape="565.18,57.00 568.43,48.65 570.54,42.81 572.21,36.85 574.14,28.10" speed="13.89" />
        <lane id=":j13_16_1" index="1" length="30.58" shape="568.17,58.15 571.44,49.72 573.60,43.71 575.32,37.57 577.27,28.75" speed="13.89" />
    </edge>
    <edge function="internal" id=":j13_18">
        <lane id=":j13_18_0" index="0" length="6.94" shape="568.17,58.15 571.32,51.97" speed="11.50" />
    </edge>
    <edge function="internal" id=":j13_19">
        <lane id=":j13_19_0" index="0" length="1.44" shape="568.17,58.15 569.35,57.32" speed="3.65" />
    </edge>
    <edge function="internal" id=":j13_26">
        <lane id=":j13_26_0" index="0" length="21.33" shape="571.32,51.97 572.13,50.37 576.94,45.38 582.60,43.16 589.10,43.73" speed="11.50" />
    </edge>
    <edge function="internal" id=":j13_27">
        <lane id=":j13_27_0" index="0" length="3.23" shape="569.35,57.32 570.24,57.24 570.84,57.90 571.15,59.30" speed="3.65" />
    </edge>
    <edge function="internal" id=":j14_0">
        <lane id=":j14_0_0" index="0" length="10.34" shape="963.71,154.87 960.59,155.26 958.34,156.33 956.96,158.07 956.45,160.50" speed="7.02" />
    </edge>
    <edge function="internal" id=":j14_1">
        <lane id=":j14_1_0" index="0" length="31.00" shape="963.67,151.67 954.53,151.68 947.96,151.19 941.50,149.90 932.67,147.50" speed="13.89" />
        <lane id=":j14_1_1" index="1" length="31.00" shape="963.62,148.47 954.62,148.50 948.37,148.05 942.22,146.80 933.54,144.42" speed="13.89" />
    </edge>
    <edge function="internal" id=":j14_3">
        <lane id=":j14_3_0" index="0" length="5.12" shape="963.62,148.47 958.55,147.78" speed="10.30" />
    </edge>
    <edge function="internal" id=":j14_4">
        <lane id=":j14_4_0" index="0" length="1.44" shape="963.62,148.47 962.41,147.69" speed="3.65" />
    </edge>
    <edge function="internal" id=":j14_20">
        <lane id=":j14_20_0" index="0" length="21.23" shape="958.55,147.78 956.47,147.50 951.62,144.36 949.07,139.06 948.81,131.58" speed="10.30" />
    </edge>
    <edge function="internal" id=":j14_21">
        <lane id=":j14_21_0" index="0" length="3.23" shape="962.41,147.69 962.00,146.89 962.39,146.09 963.58,145.27" speed="3.65" />
    </edge>
    <edge function="internal" id=":j14_5">
        <lane id=":j14_5_0" index="0" length="9.52" shape="958.36,132.58 958.43,135.36 959.31,137.34 961.00,138.51 963.49,138.87" speed="6.41" />
    </edge>
    <edge function="internal" id=":j14_6">
        <lane id=":j14_6_0" index="0" length="28.36" shape="955.18,132.25 953.25,160.42" speed="13.89" />
        <lane id=":j14_6_1" index="1" length="28.36" shape="951.99,131.92 950.05,160.33" speed="13.89" />
    </edge>
    <edge function="internal" id=":j14_8">
        <lane id=":j14_8_0" index="0" length="4.00" shape="951.99,131.92 951.01,135.79" speed="10.15" />
    </edge>
    <edge function="internal" id=":j14_9">
        <lane id=":j14_9_0" index="0" length="1.44" shape="951.99,131.92 951.07,133.03" speed="3.65" />
    </edge>
    <edge function="internal" id=":j14_22">
        <lane id=":j14_22_0" index="0" length="22.55" shape="951.01,135.79 950.17,139.15 946.48,143.65 940.94,145.40 933.54,144.42" speed="10.15" />
    </edge>
    <edge function="internal" id=":j14_23">
        <lane id=":j14_23_0" index="0" length="3.23" shape="951.07,133.03 950.24,133.34 949.48,132.86 948.81,131.58" speed="3.65" />
    </edge>
    <edge function="internal" id=":j14_10">
        <lane id=":j14_10_0" index="0" length="9.05" shape="936.15,135.18 938.68,135.52 940.57,134.92 941.82,133.39 942.45,130.92" speed="6.17" />
    </edge>
    <edge function="internal" id=":j14_11">
        <lane id=":j14_11_0" index="0" length="29.15" shape="935.28,138.26 943.48,140.52 949.21,141.69 955.04,142.10 963.54,142.07" speed="13.89" />
        <lane id=":j14_11_1" index="1" length="29.15" shape="934.41,141.34 942.87,143.67 948.79,144.88 954.81,145.30 963.58,145.27" speed="13.89" />
    </edge>
    <edge function="internal" id=":j14_13">
        <lane id=":j14_13_0" index="0" length="5.72" shape="934.41,141.34 939.70,143.53" speed="11.97" />
    </edge>
    <edge function="internal" id=":j14_14">
        <lane id=":j14_14_0" index="0" length="1.44" shape="934.41,141.34 935.35,142.44" speed="3.65" />
    </edge>
    <edge function="internal" id=":j14_24">
        <lane id=":j14_24_0" index="0" length="21.02" shape="939.70,143.53 941.40,144.23 946.33,148.35 949.22,153.72 950.05,160.33" speed="11.97" />
    </edge>
    <edge function="internal" id=":j14_25">
        <lane id=":j14_25_0" index="0" length="3.23" shape="935.35,142.44 935.52,143.32 934.92,143.98 933.54,144.42" speed="3.65" />
    </edge>
    <edge function="internal" id=":j14_15">
        <lane id=":j14_15_0" index="0" length="13.94" shape="940.45,160.08 939.98,156.86 938.38,154.20 935.66,152.11 931.80,150.58" speed="8.76" />
    </edge>
    <edge function="internal" id=":j14_16">
        <lane id=":j14_16_0" index="0" length="28.86" shape="943.65,160.16 945.63,131.25" speed="13.89" />
        <lane id=":j14_16_1" index="1" length="28.86" shape="946.85,160.25 948.81,131.58" speed="13.89" />
    </edge>
    <edge function="internal" id=":j14_18">
        <lane id=":j14_18_0" index="0" length="6.19" shape="946.85,160.25 947.97,154.16" speed="10.69" />
    </edge>
    <edge function="internal" id=":j14_19">
        <lane id=":j14_19_0" index="0" length="1.44" shape="946.85,160.25 947.68,159.07" speed="3.65" />
    </edge>
    <edge function="internal" id=":j14_26">
        <lane id=":j14_26_0" index="0" length="19.18" shape="947.97,154.16 948.04,153.78 951.23,149.13 956.41,146.29 963.58,145.27" speed="10.69" />
    </edge>
    <edge function="internal" id=":j14_27">
        <lane id=":j14_27_0" index="0" length="3.23" shape="947.68,159.07 948.49,158.69 949.28,159.11 950.05,160.33" speed="3.65" />
    </edge>
    <edge function="internal" id=":j15_0">
        <lane id=":j15_0_0" index="0" length="4.67" shape="1359.85,139.93 1361.06,140.71 1361.47,141.51 1361.08,142.31 1359.89,143.13" speed="3.65" />
    </edge>
    <edge function="internal" id=":j16_0">
        <lane id=":j16_0_0" index="0" length="4.67" shape="-497.05,-248.02 -498.27,-248.79 -498.69,-249.58 -498.31,-250.39 -497.13,-251.22" speed="3.65" />
    </edge>
    <edge function="internal" id=":j17_0">
        <lane id=":j17_0_0" index="0" length="9.19" shape="-70.23,-246.02 -70.65,-248.55 -71.74,-250.33 -73.52,-251.37 -75.98,-251.68" speed="6.56" />
    </edge>
    <edge function="internal" id=":j17_1">
        <lane id=":j17_1_0" index="0" length="27.45" shape="-70.23,-246.02 -70.71,-273.52" speed="13.89" />
        <lane id=":j17_1_1" index="1" length="27.45" shape="-67.03,-246.10 -67.51,-273.55" speed="13.89" />
        <lane id=":j17_1_2" index="2" length="27.45" shape="-63.84,-246.19 -64.31,-273.58" speed="13.89" />
    </edge>
    <edge function="internal" id=":j17_4">
        <lane id=":j17_4_0" index="0" length="24.72" shape="-63.84,-246.19 -63.05,-252.93 -60.28,-257.77 -55.54,-260.69 -48.83,-261.70" speed="10.34" />
    </edge>
    <edge function="internal" id=":j17_5">
        <lane id=":j17_5_0" index="0" length="4.67" shape="-63.84,-246.19 -63.07,-247.41 -62.28,-247.83 -61.47,-247.45 -60.64,-246.27" speed="3.65" />
    </edge>
    <edge function="internal" id=":j17_6">
        <lane id=":j17_6_0" index="0" length="9.03" shape="-48.75,-252.10 -51.21,-251.73 -52.94,-250.67 -53.95,-248.90 -54.24,-246.43" speed="6.47" />
    </edge>
    <edge function="internal" id=":j17_7">
        <lane id=":j17_7_0" index="0" length="27.28" shape="-48.75,-252.10 -75.98,-251.68" speed="13.89" />
        <lane id=":j17_7_1" index="1" length="27.28" shape="-48.78,-255.30 -76.05,-254.88" speed="13.89" />
        <lane id=":j17_7_2" index="2" length="27.28" shape="-48.80,-258.50 -76.13,-258.08" speed="13.89" />
    </edge>
    <edge function="internal" id=":j17_10">
        <lane id=":j17_10_0" index="0" length="4.80" shape="-48.80,-258.50 -53.56,-259.14" speed="10.40" />
    </edge>
    <edge function="internal" id=":j17_11">
        <lane id=":j17_11_0" index="0" length="1.44" shape="-48.80,-258.50 -50.01,-259.29" speed="3.65" />
    </edge>
    <edge function="internal" id=":j17_24">
        <lane id=":j17_24_0" index="0" length="19.85" shape="-53.56,-259.14 -55.54,-259.40 -60.37,-262.21 -63.29,-266.94 -64.31,-273.58" speed="10.40" />
    </edge>
    <edge function="internal" id=":j17_25">
        <lane id=":j17_25_0" index="0" length="3.23" shape="-50.01,-259.29 -50.41,-260.09 -50.02,-260.89 -48.83,-261.70" speed="3.65" />
    </edge>
    <edge function="internal" id=":j17_12">
        <lane id=":j17_12_0" index="0" length="9.18" shape="-54.71,-273.66 -54.32,-271.21 -53.22,-269.47 -51.41,-268.43 -48.87,-268.10" speed="6.56" />
    </edge>
    <edge function="internal" id=":j17_13">
        <lane id=":j17_13_0" index="0" length="27.28" shape="-54.71,-273.66 -54.24,-246.43" speed="13.89" />
        <lane id=":j17_13_1" index="1" length="27.28" shape="-57.91,-273.63 -57.44,-246.35" speed="13.89" />
        <lane id=":j17_13_2" index="2" length="27.28" shape="-61.11,-273.60 -60.64,-246.27" speed="13.89" />
    </edge>
    <edge function="internal" id=":j17_16">
        <lane id=":j17_16_0" index="0" length="24.56" shape="-61.11,-273.60 -62.00,-266.95 -64.80,-262.14 -69.51,-259.18 -76.13,-258.08" speed="10.43" />
    </edge>
    <edge function="internal" id=":j17_17">
        <lane id=":j17_17_0" index="0" length="4.67" shape="-61.11,-273.60 -61.90,-272.40 -62.69,-271.99 -63.50,-272.38 -64.31,-273.58" speed="3.65" />
    </edge>
    <edge function="internal" id=":j17_18">
        <lane id=":j17_18_0" index="0" length="9.25" shape="-76.36,-267.67 -73.87,-268.09 -72.09,-269.20 -71.04,-271.01 -70.71,-273.52" speed="6.61" />
    </edge>
    <edge function="internal" id=":j17_19">
        <lane id=":j17_19_0" index="0" length="27.44" shape="-76.36,-267.67 -48.87,-268.10" speed="13.89" />
        <lane id=":j17_19_1" index="1" length="27.44" shape="-76.28,-264.47 -48.85,-264.90" speed="13.89" />
        <lane id=":j17_19_2" index="2" length="27.44" shape="-76.21,-261.28 -48.83,-261.70" speed="13.89" />
    </edge>
    <edge function="internal" id=":j17_22">
        <lane id=":j17_22_0" index="0" length="5.25" shape="-76.21,-261.28 -71.00,-260.65" speed="10.40" />
    </edge>
    <edge function="internal" id=":j17_23">
        <lane id=":j17_23_0" index="0" length="1.44" shape="-76.21,-261.28 -74.99,-260.50" speed="3.65" />
    </edge>
    <edge function="internal" id=":j17_26">
        <lane id=":j17_26_0" index="0" length="19.40" shape="-71.00,-260.65 -69.54,-260.47 -64.73,-257.70 -61.76,-252.97 -60.64,-246.27" speed="10.40" />
    </edge>
    <edge function="internal" id=":j17_27">
        <lane id=":j17_27_0" index="0" length="3.23" shape="-74.99,-260.50 -74.57,-259.71 -74.95,-258.90 -76.13,-258.08" speed="3.65" />
    </edge>
    <edge function="internal" id=":j18_0">
        <lane id=":j18_0_0" index="0" length="9.12" shape="74.94,-247.34 74.54,-249.83 73.45,-251.60 71.69,-252.65 69.25,-252.99" speed="6.57" />
    </edge>
    <edge function="internal" id=":j18_1">
        <lane id=":j18_1_0" index="0" length="29.62" shape="78.14,-247.42 79.11,-255.47 82.41,-261.30 88.07,-264.88 96.07,-266.23" speed="11.36" />
        <lane id=":j18_1_1" index="1" length="24.47" shape="81.34,-247.49 82.14,-254.15 84.87,-258.96 89.54,-261.92 96.15,-263.03" speed="10.36" />
    </edge>
    <edge function="internal" id=":j18_3">
        <lane id=":j18_3_0" index="0" length="4.67" shape="81.34,-247.49 82.11,-248.71 82.91,-249.13 83.71,-248.74 84.54,-247.56" speed="3.65" />
    </edge>
    <edge function="internal" id=":j18_4">
        <lane id=":j18_4_0" index="0" length="9.02" shape="96.40,-253.44 93.96,-253.03 92.24,-251.94 91.23,-250.16 90.94,-247.71" speed="6.51" />
    </edge>
    <edge function="internal" id=":j18_5">
        <lane id=":j18_5_0" index="0" length="27.09" shape="96.40,-253.44 69.25,-252.99" speed="13.89" />
        <lane id=":j18_5_1" index="1" length="27.09" shape="96.31,-256.64 69.22,-256.19" speed="13.89" />
        <lane id=":j18_5_2" index="2" length="27.09" shape="96.23,-259.84 69.20,-259.39" speed="13.89" />
    </edge>
    <edge function="internal" id=":j18_8">
        <lane id=":j18_8_0" index="0" length="1.44" shape="96.23,-259.84 95.01,-260.61" speed="3.65" />
    </edge>
    <edge function="internal" id=":j18_15">
        <lane id=":j18_15_0" index="0" length="3.23" shape="95.01,-260.61 94.59,-261.39 94.97,-262.20 96.15,-263.03" speed="3.65" />
    </edge>
    <edge function="internal" id=":j18_9">
        <lane id=":j18_9_0" index="0" length="26.92" shape="69.13,-268.99 95.99,-269.43" speed="13.89" />
        <lane id=":j18_9_1" index="1" length="26.92" shape="69.15,-265.79 96.07,-266.23" speed="13.89" />
        <lane id=":j18_9_2" index="2" length="26.92" shape="69.18,-262.59 96.15,-263.03" speed="13.89" />
    </edge>
    <edge function="internal" id=":j18_12">
        <lane id=":j18_12_0" index="0" length="5.60" shape="69.18,-262.59 74.74,-261.97" speed="10.92" />
        <lane id=":j18_12_1" index="1" length="4.70" shape="69.18,-262.59 73.83,-261.96" speed="10.40" />
    </edge>
    <edge function="internal" id=":j18_14">