<net xmlns:xsi="http://www.w3.org/2001/XMLSchema-instance" junctionCornerDetail="5" limitTurnSpeed="5.50" version="1.20" xsi:noNamespaceSchemaLocation="http://sumo.dlr.de/xsd/net_file.xsd">

    <location convBoundary="-501.76,-960.90,1415.48,659.27" netOffset="0.00,0.00" origBoundary="10000000000.00,10000000000.00,-10000000000.00,-10000000000.00" projParameter="!" />

    <edge function="internal" id=":J34_0">
        <lane id=":J34_0_0" index="0" length="0.31" shape="257.55,-386.21 257.55,-386.52" speed="13.89" />
    </edge>
    <edge function="internal" id=":J34_1">
        <lane id=":J34_1_0" index="0" length="0.24" shape="260.75,-386.52 260.75,-386.28" speed="13.89" />
    </edge>
    <edge function="internal" id=":J37_0">
        <lane id=":J37_0_0" index="0" length="2.98" shape="970.51,-382.94 970.48,-385.92" speed="13.89" />
    </edge>
    <edge function="internal" id=":j10_0">
        <lane id=":j10_0_0" index="0" length="9.17" shape="-47.60,47.21 -50.05,47.55 -51.82,48.62 -52.91,50.41 -53.32,52.91" speed="6.60" />
    </edge>
    <edge function="internal" id=":j10_1">
        <lane id=":j10_1_0" index="0" length="14.42" shape="-47.60,47.21 -62.02,47.21" speed="13.89" />
    </edge>
    <edge function="internal" id=":j10_2">
        <lane id=":j10_2_0" index="0" length="3.99" shape="-47.60,47.21 -51.42,46.64 -51.53,46.57" speed="8.10" />
    </edge>
    <edge function="internal" id=":j10_12">
        <lane id=":j10_12_0" index="0" length="10.24" shape="-51.53,46.57 -54.17,44.97 -55.87,42.20 -56.51,38.35" speed="8.10" />
    </edge>
    <edge function="internal" id=":j10_3">
        <lane id=":j10_3_0" index="0" length="9.19" shape="-53.31,38.26 -52.90,40.76 -51.81,42.56 -50.04,43.64 -47.58,44.01" speed="6.63" />
    </edge>
    <edge function="internal" id=":j10_4">
        <lane id=":j10_4_0" index="0" length="14.65" shape="-53.31,38.26 -53.32,52.91" speed="13.89" />
    </edge>
    <edge function="internal" id=":j10_5">
        <lane id=":j10_5_0" index="0" length="14.30" shape="-53.31,38.26 -53.77,42.16 -55.38,44.95 -58.13,46.63 -62.02,47.21" speed="7.97" />
    </edge>
    <edge function="internal" id=":j10_6">
        <lane id=":j10_6_0" index="0" length="9.07" shape="-62.04,44.01 -59.57,43.64 -57.82,42.58 -56.80,40.81 -56.51,38.35" speed="6.47" />
    </edge>
    <edge function="internal" id=":j10_7">
        <lane id=":j10_7_0" index="0" length="14.46" shape="-62.04,44.01 -47.58,44.01" speed="13.89" />
    </edge>
    <edge function="internal" id=":j10_8">
        <lane id=":j10_8_0" index="0" length="4.13" shape="-62.04,44.01 -58.14,44.55 -57.97,44.65" speed="7.94" />
    </edge>
    <edge function="internal" id=":j10_13">
        <lane id=":j10_13_0" index="0" length="10.18" shape="-57.97,44.65 -55.38,46.21 -53.78,49.00 -53.32,52.91" speed="7.94" />
    </edge>
    <edge function="internal" id=":j10_9">
        <lane id=":j10_9_0" index="0" length="9.03" shape="-56.52,52.83 -56.81,50.36 -57.82,48.60 -59.56,47.55 -62.02,47.21" speed="6.44" />
    </edge>
    <edge function="internal" id=":j10_10">
        <lane id=":j10_10_0" index="0" length="14.48" shape="-56.52,52.83 -56.51,38.35" speed="13.89" />
    </edge>
    <edge function="internal" id=":j10_11">
        <lane id=":j10_11_0" index="0" length="14.25" shape="-56.52,52.83 -55.87,48.95 -54.17,46.19 -51.40,44.54 -47.58,44.01" speed="8.08" />
    </edge>
    <edge function="internal" id=":j11_0">
        <lane id=":j11_0_0" index="0" length="14.44" shape="96.85,48.01 82.41,47.98" speed="13.89" />
    </edge>
    <edge function="internal" id=":j11_1">
        <lane id=":j11_1_0" index="0" length="4.06" shape="96.85,48.01 93.03,47.46 92.86,47.36" speed="8.07" />
    </edge>
    <edge function="internal" id=":j11_6">
        <lane id=":j11_6_0" index="0" length="10.18" shape="92.86,47.36 90.27,45.81 88.58,43.04 87.94,39.17" speed="8.07" />
    </edge>
    <edge function="internal" id=":j11_2">
        <lane id=":j11_2_0" index="0" length="9.16" shape="91.14,39.09 91.55,41.60 92.63,43.39 94.40,44.45 96.84,44.81" speed="6.60" />
    </edge>
    <edge function="internal" id=":j11_3">
        <lane id=":j11_3_0" index="0" length="14.30" shape="91.14,39.09 90.67,43.00 89.06,45.79 86.31,47.45 82.41,47.98" speed="7.95" />
    </edge>
    <edge function="internal" id=":j11_4">
        <lane id=":j11_4_0" index="0" length="9.03" shape="82.43,44.78 84.89,44.44 86.63,43.39 87.65,41.64 87.94,39.17" speed="6.44" />
    </edge>
    <edge function="internal" id=":j11_5">
        <lane id=":j11_5_0" index="0" length="14.42" shape="82.43,44.78 96.84,44.81" speed="13.89" />
    </edge>
    <edge function="internal" id=":j12_0">
        <lane id=":j12_0_0" index="0" length="9.19" shape="270.75,47.48 268.27,47.87 266.49,48.96 265.41,50.74 265.04,53.23" speed="6.61" />
    </edge>
    <edge function="internal" id=":j12_1">
        <lane id=":j12_1_0" index="0" length="14.48" shape="270.75,47.48 256.27,47.60" speed="13.89" />
    </edge>
    <edge function="internal" id=":j12_2">
        <lane id=":j12_2_0" index="0" length="4.11" shape="270.75,47.48 266.88,46.98 266.69,46.87" speed="7.99" />
    </edge>
    <edge function="internal" id=":j12_12">
        <lane id=":j12_12_0" index="0" length="10.11" shape="266.69,46.87 264.11,45.36 262.43,42.62 261.86,38.77" speed="7.99" />
    </edge>
    <edge function="internal" id=":j12_3">
        <lane id=":j12_3_0" index="0" length="9.03" shape="265.06,38.75 265.42,41.20 266.49,42.94 268.25,43.96 270.70,44.28" speed="6.49" />
    </edge>
    <edge function="internal" id=":j12_4">
        <lane id=":j12_4_0" index="0" length="14.48" shape="265.06,38.75 265.04,53.23" speed="13.89" />
    </edge>
    <edge function="internal" id=":j12_5">
        <lane id=":j12_5_0" index="0" length="14.24" shape="265.06,38.75 264.53,42.61 262.89,45.37 260.13,47.04 256.27,47.60" speed="8.00" />
    </edge>
    <edge function="internal" id=":j12_6">
        <lane id=":j12_6_0" index="0" length="9.06" shape="256.26,44.40 258.72,44.04 260.47,42.98 261.52,41.22 261.86,38.77" speed="6.51" />
    </edge>
    <edge function="internal" id=":j12_7">
        <lane id=":j12_7_0" index="0" length="14.44" shape="256.26,44.40 270.70,44.28" speed="13.89" />
    </edge>
    <edge function="internal" id=":j12_8">
        <lane id=":j12_8_0" index="0" length="4.03" shape="256.26,44.40 260.13,44.94 260.24,45.01" speed="7.98" />
    </edge>
    <edge function="internal" id=":j12_13">
        <lane id=":j12_13_0" index="0" length="10.20" shape="260.24,45.01 262.88,46.59 264.52,49.36 265.04,53.23" speed="7.98" />
    </edge>
    <edge function="internal" id=":j12_9">
        <lane id=":j12_9_0" index="0" length="9.03" shape="261.84,53.20 261.51,50.74 260.47,48.99 258.72,47.94 256.27,47.60" speed="6.48" />
    </edge>
    <edge function="internal" id=":j12_10">
        <lane id=":j12_10_0" index="0" length="14.44" shape="261.84,53.20 261.86,38.77" speed="13.89" />
    </edge>
    <edge function="internal" id=":j12_11">
        <lane id=":j12_11_0" index="0" length="14.27" shape="261.84,53.20 262.42,49.34 264.09,46.57 266.85,44.88 270.70,44.28" speed="8.09" />
    </edge>
    <edge function="internal" id=":j13_0">
        <lane id=":j13_0_0" index="0" length="10.61" shape="582.49,45.19 580.00,44.96 577.85,45.76 576.04,47.60 574.56,50.47" speed="7.24" />
    </edge>
    <edge function="internal" id=":j13_1">
        <lane id=":j13_1_0" index="0" length="15.14" shape="582.49,45.19 578.82,44.34 575.07,43.79 571.28,43.52 567.50,43.47" speed="13.89" />
    </edge>
    <edge function="internal" id=":j13_2">
        <lane id=":j13_2_0" index="0" length="13.93" shape="582.49,45.19 579.03,43.66 576.81,41.39 575.82,38.36 576.06,34.59" speed="8.14" />
    </edge>
    <edge function="internal" id=":j13_3">
        <lane id=":j13_3_0" index="0" length="9.03" shape="579.20,35.24 579.04,37.69 579.68,39.65 581.12,41.12 583.36,42.11" speed="6.67" />
    </edge>
    <edge function="internal" id=":j13_4">
        <lane id=":j13_4_0" index="0" length="15.94" shape="579.20,35.24 578.30,39.03 577.17,42.94 575.90,46.81 574.56,50.47" speed="13.89" />
    </edge>
    <edge function="internal" id=":j13_5">
        <lane id=":j13_5_0" index="0" length="4.07" shape="579.20,35.24 577.83,38.79 577.65,38.98" speed="9.12" />
    </edge>
    <edge function="internal" id=":j13_12">
        <lane id=":j13_12_0" index="0" length="11.54" shape="577.65,38.98 575.43,41.34 571.99,42.90 567.50,43.47" speed="9.12" />
    </edge>
    <edge function="internal" id=":j13_6">
        <lane id=":j13_6_0" index="0" length="11.24" shape="567.46,40.27 570.79,39.88 573.33,38.80 575.09,37.04 576.06,34.59" speed="7.81" />
    </edge>
    <edge function="internal" id=":j13_7">
        <lane id=":j13_7_0" index="0" length="16.06" shape="567.46,40.27 571.37,40.34 575.48,40.65 579.55,41.24 583.36,42.11" speed="13.89" />
    </edge>
    <edge function="internal" id=":j13_8">
        <lane id=":j13_8_0" index="0" length="15.91" shape="567.46,40.27 572.06,40.85 574.78,42.74 575.61,45.95 574.56,50.47" speed="7.49" />
    </edge>
    <edge function="internal" id=":j13_9">
        <lane id=":j13_9_0" index="0" length="9.13" shape="571.57,49.32 572.18,46.73 571.70,44.89 570.14,43.80 567.50,43.47" speed="5.84" />
    </edge>
    <edge function="internal" id=":j13_10">
        <lane id=":j13_10_0" index="0" length="15.42" shape="571.57,49.32 572.89,45.74 574.11,42.04 575.19,38.30 576.06,34.59" speed="13.89" />
    </edge>
    <edge function="internal" id=":j13_11">
        <lane id=":j13_11_0" index="0" length="4.54" shape="571.57,49.32 573.69,45.31" speed="8.61" />
    </edge>
    <edge function="internal" id=":j13_13">
        <lane id=":j13_13_0" index="0" length="10.89" shape="573.69,45.31 576.36,42.76 579.58,41.70 583.36,42.11" speed="8.61" />
    </edge>
    <edge function="internal" id=":j14_0">
        <lane id=":j14_0_0" index="0" length="9.46" shape="956.42,148.57 953.76,148.95 951.84,150.01 950.66,151.76 950.21,154.18" speed="6.74" />
    </edge>
    <edge function="internal" id=":j14_1">
        <lane id=":j14_1_0" index="0" length="15.75" shape="956.42,148.57 952.56,148.46 948.57,148.06 944.62,147.40 940.86,146.49" speed="13.89" />
    </edge>
    <edge function="internal" id=":j14_2">
        <lane id=":j14_2_0" index="0" length="14.82" shape="956.42,148.57 952.37,148.03 949.62,146.28 948.17,143.31 948.02,139.14" speed="7.84" />
    </edge>
    <edge function="internal" id=":j14_3">
        <lane id=":j14_3_0" index="0" length="9.20" shape="951.20,139.48 951.29,142.08 952.18,143.93 953.88,145.03 956.38,145.37" speed="6.31" />
    </edge>
    <edge function="internal" id=":j14_4">
        <lane id=":j14_4_0" index="0" length="14.74" shape="951.20,139.48 950.21,154.18" speed="13.89" />
    </edge>
    <edge function="internal" id=":j14_5">
        <lane id=":j14_5_0" index="0" length="3.97" shape="951.20,139.48 950.23,143.33" speed="7.73" />
    </edge>
    <edge function="internal" id=":j14_12">
        <lane id=":j14_12_0" index="0" length="10.91" shape="950.23,143.33 950.18,143.53 948.11,146.05 945.01,147.04 940.86,146.49" speed="7.73" />
    </edge>
    <edge function="internal" id=":j14_6">
        <lane id=":j14_6_0" index="0" length="9.05" shape="941.73,143.41 944.25,143.74 946.14,143.15 947.40,141.61 948.02,139.14" speed="6.17" />
    </edge>
    <edge function="internal" id=":j14_7">
        <lane id=":j14_7_0" index="0" length="14.83" shape="941.73,143.41 945.34,144.30 948.98,144.92 952.66,145.28 956.38,145.37" speed="13.89" />
    </edge>
    <edge function="internal" id=":j14_8">
        <lane id=":j14_8_0" index="0" length="14.92" shape="941.73,143.41 945.52,145.00 948.20,147.33 949.76,150.39 950.21,154.18" speed="9.05" />
    </edge>
    <edge function="internal" id=":j14_9">
        <lane id=":j14_9_0" index="0" length="10.65" shape="947.01,154.10 946.69,151.44 945.55,149.28 943.61,147.63 940.86,146.49" speed="7.72" />
    </edge>
    <edge function="internal" id=":j14_10">
        <lane id=":j14_10_0" index="0" length="14.99" shape="947.01,154.10 948.02,139.14" speed="13.89" />
    </edge>
    <edge function="internal" id=":j14_11">
        <lane id=":j14_11_0" index="0" length="4.27" shape="947.01,154.10 947.68,150.33 947.93,149.96" speed="8.19" />
    </edge>
    <edge function="internal" id=":j14_13">
        <lane id=":j14_13_0" index="0" length="10.20" shape="947.93,149.96 949.47,147.61 952.37,145.96 956.38,145.37" speed="8.19" />
    </edge>
    <edge function="internal" id=":j17_0">
        <lane id=":j17_0_0" index="0" length="9.08" shape="-64.00,-252.70 -64.41,-255.17 -65.51,-256.91 -67.28,-257.93 -69.74,-258.23" speed="6.53" />
    </edge>
    <edge function="internal" id=":j17_1">
        <lane id=":j17_1_0" index="0" length="14.48" shape="-64.00,-252.70 -64.25,-267.18" speed="13.89" />
    </edge>
    <edge function="internal" id=":j17_2">
        <lane id=":j17_2_0" index="0" length="14.26" shape="-64.00,-252.70 -63.54,-256.59 -61.95,-259.38 -59.21,-261.07 -55.34,-261.65" speed="7.97" />
    </edge>
    <edge function="internal" id=":j17_3">
        <lane id=":j17_3_0" index="0" length="9.03" shape="-55.32,-258.45 -57.77,-258.08 -59.50,-257.01 -60.51,-255.25 -60.80,-252.78" speed="6.47" />
    </edge>
    <edge function="internal" id=":j17_4">
        <lane id=":j17_4_0" index="0" length="14.43" shape="-55.32,-258.45 -69.74,-258.23" speed="13.89" />
    </edge>
    <edge function="internal" id=":j17_5">
        <lane id=":j17_5_0" index="0" length="4.03" shape="-55.32,-258.45 -59.20,-258.97 -59.30,-259.03" speed="8.02" />
    </edge>
    <edge function="internal" id=":j17_12">
        <lane id=":j17_12_0" index="0" length="10.21" shape="-59.30,-259.03 -61.98,-260.60 -63.66,-263.34 -64.25,-267.18" speed="8.02" />
    </edge>
    <edge function="internal" id=":j17_6">
        <lane id=":j17_6_0" index="0" length="9.08" shape="-61.05,-267.21 -60.67,-264.76 -59.60,-263.02 -57.82,-261.98 -55.34,-261.65" speed="6.53" />
    </edge>
    <edge function="internal" id=":j17_7">
        <lane id=":j17_7_0" index="0" length="14.43" shape="-61.05,-267.21 -60.80,-252.78" speed="13.89" />
    </edge>
    <edge function="internal" id=":j17_8">
        <lane id=":j17_8_0" index="0" length="14.21" shape="-61.05,-267.21 -61.56,-263.36 -63.18,-260.58 -65.91,-258.87 -69.74,-258.23" speed="8.05" />
    </edge>
    <edge function="internal" id=":j17_9">
        <lane id=":j17_9_0" index="0" length="9.10" shape="-69.82,-261.43 -67.36,-261.84 -65.62,-262.93 -64.58,-264.71 -64.25,-267.18" speed="6.56" />
    </edge>
    <edge function="internal" id=":j17_10">
        <lane id=":j17_10_0" index="0" length="14.48" shape="-69.82,-261.43 -55.34,-261.65" speed="13.89" />
    </edge>
    <edge function="internal" id=":j17_11">
        <lane id=":j17_11_0" index="0" length="4.12" shape="-69.82,-261.43 -65.96,-260.96 -65.76,-260.85" speed="8.02" />
    </edge>
    <edge function="internal" id=":j17_13">
        <lane id=":j17_13_0" index="0" length="10.12" shape="-65.76,-260.85 -63.17,-259.37 -61.45,-256.64 -60.80,-252.78" speed="8.02" />
    </edge>
    <edge function="internal" id=":j18_0">
        <lane id=":j18_0_0" index="0" length="9.05" shape="81.19,-253.87 80.79,-256.32 79.70,-258.06 77.94,-259.10 75.50,-259.43" speed="6.55" />
    </edge>
    <edge function="internal" id=":j18_1">
        <lane id=":j18_1_0" index="0" length="14.17" shape="81.19,-253.87 81.65,-257.72 83.24,-260.51 85.94,-262.22 89.77,-262.87" speed="8.00" />
    </edge>
    <edge function="internal" id=":j18_2">
        <lane id=":j18_2_0" index="0" length="9.02" shape="89.85,-259.67 87.41,-259.26 85.69,-258.17 84.68,-256.40 84.39,-253.94" speed="6.51" />
    </edge>
    <edge function="internal" id=":j18_3">
        <lane id=":j18_3_0" index="0" length="14.35" shape="89.85,-259.67 75.50,-259.43" speed="13.89" />
    </edge>
    <edge function="internal" id=":j18_4">
        <lane id=":j18_4_0" index="0" length="14.29" shape="75.47,-262.63 89.77,-262.87" speed="13.89" />
    </edge>
    <edge function="internal" id=":j18_5">
        <lane id=":j18_5_0" index="0" length="3.98" shape="75.47,-262.63 79.30,-262.12 79.40,-262.06" speed="8.04" />
    </edge>
    <edge function="internal" id=":j18_6">
        <lane id=":j18_6_0" index="0" length="10.17" shape="79.40,-262.06 82.06,-260.49 83.76,-257.77 84.39,-253.94" speed="8.04" />
    </edge>
    <edge function="internal" id=":j19_0">
        <lane id=":j19_0_0" index="0" length="9.03" shape="260.11,-258.38 259.74,-260.83 258.67,-262.56 256.91,-263.57 254.44,-263.86" speed="6.46" />
    </edge>
    <edge function="internal" id=":j19_1">
        <lane id=":j19_1_0" index="0" length="14.42" shape="260.11,-258.38 259.91,-272.80" speed="13.89" />
    </edge>
    <edge function="internal" id=":j19_2">
        <lane id=":j19_2_0" index="0" length="4.04" shape="260.11,-258.38 260.64,-262.26 260.69,-262.36" speed="8.00" />
    </edge>
    <edge function="internal" id=":j19_12">
        <lane id=":j19_12_0" index="0" length="10.22" shape="260.69,-262.36 262.28,-265.03 265.03,-266.69 268.89,-267.24" speed="8.00" />
    </edge>
    <edge function="internal" id=":j19_3">
        <lane id=":j19_3_0" index="0" length="9.06" shape="268.88,-264.04 266.43,-263.69 264.68,-262.63 263.64,-260.87 263.31,-258.39" speed="6.50" />
    </edge>
    <edge function="internal" id=":j19_4">
        <lane id=":j19_4_0" index="0" length="14.44" shape="268.88,-264.04 254.44,-263.86" speed="13.89" />
    </edge>
    <edge function="internal" id=":j19_5">
        <lane id=":j19_5_0" index="0" length="14.23" shape="268.88,-264.04 265.03,-264.59 262.25,-266.23 260.54,-268.97 259.91,-272.80" speed="8.08" />
    </edge>
    <edge function="internal" id=":j19_6">
        <lane id=":j19_6_0" index="0" length="9.15" shape="263.11,-272.86 263.52,-270.41 264.62,-268.65 266.41,-267.59 268.89,-267.24" speed="6.60" />
    </edge>
    <edge function="internal" id=":j19_7">
        <lane id=":j19_7_0" index="0" length="14.47" shape="263.11,-272.86 263.31,-258.39" speed="13.89" />
    </edge>
    <edge function="internal" id=":j19_8">
        <lane id=":j19_8_0" index="0" length="4.11" shape="263.11,-272.86 262.64,-269.01 262.53,-268.82" speed="8.03" />
    </edge>
    <edge function="internal" id=":j19_13">
        <lane id=":j19_13_0" index="0" length="10.13" shape="262.53,-268.82 261.04,-266.23 258.30,-264.51 254.44,-263.86" speed="8.03" />
    </edge>
    <edge function="internal" id=":j19_9">
        <lane id=":j19_9_0" index="0" length="9.09" shape="254.36,-267.06 256.83,-267.47 258.58,-268.57 259.61,-270.34 259.91,-272.80" speed="6.54" />
    </edge>
    <edge function="internal" id=":j19_10">
        <lane id=":j19_10_0" index="0" length="14.53" shape="254.36,-267.06 268.89,-267.24" speed="13.89" />
    </edge>
    <edge function="internal" id=":j19_11">
        <lane id=":j19_11_0" index="0" length="14.27" shape="254.36,-267.06 258.25,-266.61 261.04,-265.01 262.73,-262.27 263.31,-258.39" speed="7.97" />
    </edge>
    <edge function="internal" id=":j20_0">
        <lane id=":j20_0_0" index="0" length="9.17" shape="646.57,-260.82 644.09,-261.38 642.15,-260.94 640.73,-259.49 639.85,-257.04" speed="6.21" />
    </edge>
    <edge function="internal" id=":j20_1">
        <lane id=":j20_1_0" index="0" length="14.93" shape="646.57,-260.82 643.03,-262.01 639.40,-262.86 635.70,-263.37 631.97,-263.54" speed="13.89" />
    </edge>
    <edge function="internal" id=":j20_2">
        <lane id=":j20_2_0" index="0" length="15.16" shape="646.57,-260.82 642.95,-262.74 640.36,-265.30 638.81,-268.50 638.29,-272.33" speed="9.66" />
    </edge>
    <edge function="internal" id=":j20_3">
        <lane id=":j20_3_0" index="0" length="11.30" shape="641.49,-272.34 641.88,-269.51 643.05,-267.15 645.00,-265.24 647.73,-263.80" speed="8.41" />
    </edge>
    <edge function="internal" id=":j20_4">
        <lane id=":j20_4_0" index="0" length="15.41" shape="641.49,-272.34 641.38,-268.53 641.05,-264.65 640.54,-260.79 639.85,-257.04" speed="13.89" />
    </edge>
    <edge function="internal" id=":j20_5">
        <lane id=":j20_5_0" index="0" length="4.19" shape="641.49,-272.34 640.90,-268.48 640.74,-268.24" speed="8.15" />
    </edge>
    <edge function="internal" id=":j20_12">
        <lane id=":j20_12_0" index="0" length="10.60" shape="640.74,-268.24 639.11,-265.73 636.14,-264.08 631.97,-263.54" speed="8.15" />
    </edge>
    <edge function="internal" id=":j20_6">
        <lane id=":j20_6_0" index="0" length="9.62" shape="631.97,-266.74 634.74,-267.09 636.71,-268.13 637.90,-269.88 638.29,-272.33" speed="6.69" />
    </edge>
    <edge function="internal" id=":j20_7">
        <lane id=":j20_7_0" index="0" length="16.10" shape="631.97,-266.74 635.89,-266.53 639.98,-265.95 644.00,-265.02 647.73,-263.80" speed="13.89" />
    </edge>
    <edge function="internal" id=":j20_8">
        <lane id=":j20_8_0" index="0" length="15.03" shape="631.97,-266.74 636.17,-266.13 638.89,-264.31 640.11,-261.28 639.85,-257.04" speed="7.68" />
    </edge>
    <edge function="internal" id=":j20_9">
        <lane id=":j20_9_0" index="0" length="9.06" shape="636.72,-257.69 636.88,-260.25 636.14,-262.07 634.50,-263.17 631.97,-263.54" speed="6.11" />
    </edge>
    <edge function="internal" id=":j20_10">
        <lane id=":j20_10_0" index="0" length="14.75" shape="636.72,-257.69 637.39,-261.34 637.89,-264.97 638.19,-268.63 638.29,-272.33" speed="13.89" />
    </edge>
    <edge function="internal" id=":j20_11">
        <lane id=":j20_11_0" index="0" length="4.11" shape="636.72,-257.69 638.11,-261.56" speed="7.76" />
    </edge>
    <edge function="internal" id=":j20_13">
        <lane id=":j20_13_0" index="0" length="10.87" shape="638.11,-261.56 638.16,-261.68 640.47,-264.03 643.66,-264.73 647.73,-263.80" speed="7.76" />
    </edge>
    <edge function="internal" id=":j21_0">
        <lane id=":j21_0_0" index="0" length="9.32" shape="985.39,-132.24 982.83,-131.85 980.92,-130.81 979.66,-129.11 979.05,-126.74" speed="6.90" />
    </edge>
    <edge function="internal" id=":j21_1">
        <lane id=":j21_1_0" index="0" length="16.39" shape="985.39,-132.24 981.43,-132.44 977.26,-133.10 973.15,-134.13 969.39,-135.40" speed="13.89" />
    </edge>
    <edge function="internal" id=":j21_2">
        <lane id=":j21_2_0" index="0" length="15.50" shape="985.39,-132.24 981.53,-132.81 978.74,-134.71 977.02,-137.92 976.36,-142.46" speed="8.35" />
    </edge>
    <edge function="internal" id=":j21_3">
        <lane id=":j21_3_0" index="0" length="10.37" shape="979.56,-142.54 979.98,-139.39 981.09,-137.16 982.87,-135.84 985.32,-135.44" speed="6.94" />
    </edge>
    <edge function="internal" id=":j21_4">
        <lane id=":j21_4_0" index="0" length="15.81" shape="979.56,-142.54 979.60,-138.66 979.54,-134.63 979.37,-130.61 979.05,-126.74" speed="13.89" />
    </edge>
    <edge function="internal" id=":j21_5">
        <lane id=":j21_5_0" index="0" length="4.68" shape="979.56,-142.54 979.02,-137.89" speed="7.48" />
    </edge>
    <edge function="internal" id=":j21_12">
        <lane id=":j21_12_0" index="0" length="11.31" shape="979.02,-137.89 977.15,-135.15 973.94,-134.32 969.39,-135.40" speed="7.48" />
    </edge>
    <edge function="internal" id=":j21_6">
        <lane id=":j21_6_0" index="0" length="9.14" shape="970.55,-138.38 973.15,-137.76 974.98,-138.24 976.05,-139.80 976.36,-142.46" speed="5.82" />
    </edge>
    <edge function="internal" id=":j21_7">
        <lane id=":j21_7_0" index="0" length="15.15" shape="970.55,-138.38 974.12,-137.14 977.81,-136.19 981.56,-135.60 985.32,-135.44" speed="13.89" />
    </edge>
    <edge function="internal" id=":j21_8">
        <lane id=":j21_8_0" index="0" length="15.61" shape="970.55,-138.38 974.58,-136.29 977.34,-133.66 978.83,-130.47 979.05,-126.74" speed="9.31" />
    </edge>
    <edge function="internal" id=":j21_9">
        <lane id=":j21_9_0" index="0" length="11.40" shape="975.87,-127.08 975.68,-129.69 974.54,-131.94 972.44,-133.85 969.39,-135.40" speed="8.03" />
    </edge>
    <edge function="internal" id=":j21_10">
        <lane id=":j21_10_0" index="0" length="15.40" shape="975.87,-127.08 976.18,-130.88 976.35,-134.76 976.40,-138.65 976.36,-142.46" speed="13.89" />
    </edge>
    <edge function="internal" id=":j21_11">
        <lane id=":j21_11_0" index="0" length="3.71" shape="975.87,-127.08 976.78,-130.67" speed="8.34" />
    </edge>
    <edge function="internal" id=":j21_13">
        <lane id=":j21_13_0" index="0" length="10.32" shape="976.78,-130.67 978.66,-133.27 981.51,-134.85 985.32,-135.44" speed="8.34" />
    </edge>
    <edge function="internal" id=":j24_0">
        <lane id=":j24_0_0" index="0" length="9.93" shape="-66.47,-527.65 -66.79,-530.45 -67.71,-532.70 -69.23,-534.39 -71.34,-535.53" speed="7.83" />
    </edge>
    <edge function="internal" id=":j24_1">
        <lane id=":j24_1_0" index="0" length="14.30" shape="-66.47,-527.65 -65.94,-531.54 -64.29,-534.30 -61.52,-535.93 -57.61,-536.41" speed="7.95" />
    </edge>
    <edge function="internal" id=":j24_2">
        <lane id=":j24_2_0" index="0" length="9.03" shape="-57.67,-533.21 -60.14,-532.91 -61.89,-531.88 -62.94,-530.14 -63.27,-527.67" speed="6.45" />
    </edge>
    <edge function="internal" id=":j24_3">
        <lane id=":j24_3_0" index="0" length="13.93" shape="-57.67,-533.21 -61.25,-533.38 -64.62,-533.78 -67.92,-534.47 -71.34,-535.53" speed="13.89" />
    </edge>
    <edge function="internal" id=":j24_4">
        <lane id=":j24_4_0" index="0" length="12.91" shape="-70.27,-538.54 -67.01,-537.52 -64.05,-536.89 -61.04,-536.55 -57.61,-536.41" speed="13.89" />
    </edge>
    <edge function="internal" id=":j24_5">
        <lane id=":j24_5_0" index="0" length="3.44" shape="-70.27,-538.54 -67.23,-536.94" speed="9.16" />
    </edge>
    <edge function="internal" id=":j24_6">
        <lane id=":j24_6_0" index="0" length="10.42" shape="-67.23,-536.94 -65.05,-534.59 -63.73,-531.51 -63.27,-527.67" speed="9.16" />
    </edge>
    <edge function="internal" id=":j25_0">
        <lane id=":j25_0_0" index="0" length="9.06" shape="266.71,-527.39 264.25,-527.03 262.49,-525.98 261.43,-524.23 261.07,-521.78" speed="6.53" />
    </edge>
    <edge function="internal" id=":j25_1">
        <lane id=":j25_1_0" index="0" length="14.50" shape="266.71,-527.39 252.21,-527.50" speed="13.89" />
    </edge>
    <edge function="internal" id=":j25_2">
        <lane id=":j25_2_0" index="0" length="14.24" shape="266.71,-527.39 262.85,-527.93 260.10,-529.59 258.45,-532.35 257.90,-536.23" speed="8.00" />
    </edge>
    <edge function="internal" id=":j25_3">
        <lane id=":j25_3_0" index="0" length="9.06" shape="261.10,-536.22 261.45,-533.75 262.50,-531.99 264.25,-530.94 266.70,-530.59" speed="6.51" />
    </edge>
    <edge function="internal" id=":j25_4">
        <lane id=":j25_4_0" index="0" length="14.44" shape="261.10,-536.22 261.07,-521.78" speed="13.89" />
    </edge>
    <edge function="internal" id=":j25_5">
        <lane id=":j25_5_0" index="0" length="4.08" shape="261.10,-536.22 260.54,-532.35 260.45,-532.20" speed="7.97" />
    </edge>
    <edge function="internal" id=":j25_12">
        <lane id=":j25_12_0" index="0" length="10.17" shape="260.45,-532.20 258.87,-529.60 256.09,-527.99 252.21,-527.50" speed="7.97" />
    </edge>
    <edge function="internal" id=":j25_6">
        <lane id=":j25_6_0" index="0" length="9.03" shape="252.26,-530.70 254.73,-531.01 256.49,-532.03 257.54,-533.77 257.90,-536.23" speed="6.47" />
    </edge>
    <edge function="internal" id=":j25_7">
        <lane id=":j25_7_0" index="0" length="14.43" shape="252.26,-530.70 266.70,-530.59" speed="13.89" />
    </edge>
    <edge function="internal" id=":j25_8">
        <lane id=":j25_8_0" index="0" length="14.24" shape="252.26,-530.70 256.13,-530.08 258.88,-528.39 260.53,-525.62 261.07,-521.78" speed="8.06" />
    </edge>
    <edge function="internal" id=":j25_9">
        <lane id=":j25_9_0" index="0" length="9.14" shape="257.87,-521.79 257.52,-524.25 256.46,-526.02 254.69,-527.11 252.21,-527.50" speed="6.58" />
    </edge>
    <edge function="internal" id=":j25_10">
        <lane id=":j25_10_0" index="0" length="14.44" shape="257.87,-521.79 257.90,-536.23" speed="13.89" />
    </edge>
    <edge function="internal" id=":j25_11">
        <lane id=":j25_11_0" index="0" length="4.05" shape="257.87,-521.79 258.43,-525.63 258.52,-525.78" speed="8.02" />
    </edge>
    <edge function="internal" id=":j25_13">
        <lane id=":j25_13_0" index="0" length="10.14" shape="258.52,-525.78 260.09,-528.38 262.84,-530.03 266.70,-530.59" speed="8.02" />
    </edge>
    <edge function="internal" id=":j26_0">
        <lane id=":j26_0_0" index="0" length="14.28" shape="638.16,-378.37 638.03,-392.65" speed="13.89" />
    </edge>
    <edge function="internal" id=":j26_1">
        <lane id=":j26_1_0" index="0" length="4.00" shape="638.16,-378.37 638.70,-382.20 638.76,-382.31" speed="8.01" />
    </edge>
    <edge function="internal" id=":j26_6">
        <lane id=":j26_6_0" index="0" length="10.13" shape="638.76,-382.31 640.33,-384.94 643.06,-386.60 646.89,-387.19" speed="8.01" />
    </edge>
    <edge function="internal" id=":j26_2">
        <lane id=":j26_2_0" index="0" length="8.99" shape="646.92,-383.99 644.48,-383.62 642.74,-382.56 641.70,-380.81 641.36,-378.37" speed="6.51" />
    </edge>
    <edge function="internal" id=":j26_3">
        <lane id=":j26_3_0" index="0" length="14.13" shape="646.92,-383.99 643.08,-384.50 640.32,-386.11 638.64,-388.83 638.03,-392.65" speed="8.00" />
    </edge>
    <edge function="internal" id=":j26_4">
        <lane id=":j26_4_0" index="0" length="8.99" shape="641.23,-392.70 641.62,-390.27 642.69,-388.54 644.45,-387.51 646.89,-387.19" speed="6.51" />
    </edge>
    <edge function="internal" id=":j26_5">
        <lane id=":j26_5_0" index="0" length="14.33" shape="641.23,-392.70 641.36,-378.37" speed="13.89" />
    </edge>