<net xmlns:xsi="http://www.w3.org/2001/XMLSchema-instance" junctionCornerDetail="5" limitTurnSpeed="5.50" version="1.20" xsi:noNamespaceSchemaLocation="http://sumo.dlr.de/xsd/net_file.xsd">

    <location convBoundary="-501.76,-960.90,1415.48,659.27" netOffset="0.00,0.00" origBoundary="-10000000000.00,-10000000000.00,10000000000.00,10000000000.00" projParameter="!" />

    <edge function="internal" id=":j10_0">
        <lane id=":j10_0_0" index="0" length="9.31" shape="-44.49,50.43 -46.94,50.79 -48.71,51.88 -49.80,53.72 -50.22,56.31" speed="6.64" />
    </edge>
    <edge function="internal" id=":j10_1">
        <lane id=":j10_1_0" index="0" length="20.84" shape="-44.49,50.43 -65.31,50.43" speed="13.89" />
        <lane id=":j10_1_1" index="1" length="20.84" shape="-44.47,47.23 -65.33,47.23" speed="13.89" />
    </edge>
    <edge function="internal" id=":j10_3">
        <lane id=":j10_3_0" index="0" length="4.75" shape="-44.47,47.23 -49.17,46.52" speed="9.39" />
    </edge>
    <edge function="internal" id=":j10_16">
        <lane id=":j10_16_0" index="0" length="14.69" shape="-49.17,46.52 -49.66,46.45 -53.41,44.16 -55.73,40.37 -56.60,35.08" speed="9.39" />
    </edge>
    <edge function="internal" id=":j10_4">
        <lane id=":j10_4_0" index="0" length="9.35" shape="-50.20,34.92 -49.79,37.49 -48.68,39.34 -46.90,40.45 -44.43,40.83" speed="6.68" />
    </edge>
    <edge function="internal" id=":j10_5">
        <lane id=":j10_5_0" index="0" length="21.30" shape="-50.20,34.92 -50.22,56.31" speed="13.89" />
        <lane id=":j10_5_1" index="1" length="21.30" shape="-53.40,35.00 -53.42,56.22" speed="13.89" />
    </edge>
    <edge function="internal" id=":j10_7">
        <lane id=":j10_7_0" index="0" length="19.57" shape="-53.40,35.00 -54.03,40.33 -56.23,44.14 -59.99,46.44 -65.33,47.23" speed="9.24" />
    </edge>
    <edge function="internal" id=":j10_8">
        <lane id=":j10_8_0" index="0" length="9.10" shape="-65.37,40.83 -62.88,40.46 -61.12,39.40 -60.09,37.63 -59.80,35.17" speed="6.48" />
    </edge>
    <edge function="internal" id=":j10_9">
        <lane id=":j10_9_0" index="0" length="20.91" shape="-65.37,40.83 -44.43,40.83" speed="13.89" />
        <lane id=":j10_9_1" index="1" length="20.91" shape="-65.35,44.03 -44.45,44.03" speed="13.89" />
    </edge>
    <edge function="internal" id=":j10_11">
        <lane id=":j10_11_0" index="0" length="5.19" shape="-65.35,44.03 -60.21,44.74" speed="9.21" />
    </edge>
    <edge function="internal" id=":j10_17">
        <lane id=":j10_17_0" index="0" length="14.41" shape="-60.21,44.74 -60.00,44.77 -56.23,47.04 -54.04,50.86 -53.42,56.22" speed="9.21" />
    </edge>
    <edge function="internal" id=":j10_12">
        <lane id=":j10_12_0" index="0" length="9.03" shape="-59.81,56.05 -60.10,53.58 -61.11,51.82 -62.85,50.77 -65.31,50.43" speed="6.44" />
    </edge>
    <edge function="internal" id=":j10_13">
        <lane id=":j10_13_0" index="0" length="20.97" shape="-59.81,56.05 -59.80,35.17" speed="13.89" />
        <lane id=":j10_13_1" index="1" length="20.97" shape="-56.61,56.13 -56.60,35.08" speed="13.89" />
    </edge>
    <edge function="internal" id=":j10_15">
        <lane id=":j10_15_0" index="0" length="19.47" shape="-56.61,56.13 -55.73,50.81 -53.41,47.02 -49.65,44.76 -44.45,44.03" speed="9.36" />
    </edge>
    <edge function="internal" id=":j11_0">
        <lane id=":j11_0_0" index="0" length="20.88" shape="99.99,51.19 79.09,51.16" speed="13.89" />
        <lane id=":j11_0_1" index="1" length="20.88" shape="99.98,47.99 79.11,47.96" speed="13.89" />
    </edge>
    <edge function="internal" id=":j11_2">
        <lane id=":j11_2_0" index="0" length="5.05" shape="99.98,47.99 94.99,47.28" speed="9.35" />
    </edge>
    <edge function="internal" id=":j11_8">
        <lane id=":j11_8_0" index="0" length="14.41" shape="94.99,47.28 94.79,47.25 91.04,44.98 88.73,41.19 87.87,35.87" speed="9.35" />
    </edge>
    <edge function="internal" id=":j11_3">
        <lane id=":j11_3_0" index="0" length="9.29" shape="94.27,35.72 94.67,38.30 95.76,40.13 97.52,41.23 99.97,41.59" speed="6.64" />
    </edge>
    <edge function="internal" id=":j11_4">
        <lane id=":j11_4_0" index="0" length="19.57" shape="91.07,35.80 90.42,41.15 88.22,44.95 84.45,47.22 79.11,47.96" speed="9.21" />
    </edge>
    <edge function="internal" id=":j11_5">
        <lane id=":j11_5_0" index="0" length="9.03" shape="79.15,41.56 81.61,41.22 83.35,40.17 84.37,38.41 84.67,35.95" speed="6.45" />
    </edge>
    <edge function="internal" id=":j11_6">
        <lane id=":j11_6_0" index="0" length="20.83" shape="79.15,41.56 99.97,41.59" speed="13.89" />
        <lane id=":j11_6_1" index="1" length="20.83" shape="79.13,44.76 99.98,44.79" speed="13.89" />
    </edge>
    <edge function="internal" id=":j12_0">
        <lane id=":j12_0_0" index="0" length="9.35" shape="274.01,50.64 271.49,51.03 269.69,52.14 268.59,53.96 268.21,56.49" speed="6.66" />
    </edge>
    <edge function="internal" id=":j12_1">
        <lane id=":j12_1_0" index="0" length="20.96" shape="274.01,50.64 253.04,50.81" speed="13.89" />
        <lane id=":j12_1_1" index="1" length="20.96" shape="273.97,47.44 253.03,47.61" speed="13.89" />
    </edge>
    <edge function="internal" id=":j12_3">
        <lane id=":j12_3_0" index="0" length="5.16" shape="273.97,47.44 268.85,46.78" speed="9.25" />
    </edge>
    <edge function="internal" id=":j12_16">
        <lane id=":j12_16_0" index="0" length="14.25" shape="268.85,46.78 268.69,46.76 264.91,44.55 262.62,40.81 261.84,35.54" speed="9.25" />
    </edge>
    <edge function="internal" id=":j12_4">
        <lane id=":j12_4_0" index="0" length="9.03" shape="268.24,35.50 268.60,37.95 269.67,39.69 271.43,40.72 273.88,41.04" speed="6.49" />
    </edge>
    <edge function="internal" id=":j12_5">
        <lane id=":j12_5_0" index="0" length="20.97" shape="268.24,35.50 268.21,56.49" speed="13.89" />
        <lane id=":j12_5_1" index="1" length="20.97" shape="265.04,35.52 265.01,56.46" speed="13.89" />
    </edge>
    <edge function="internal" id=":j12_7">
        <lane id=":j12_7_0" index="0" length="19.44" shape="265.04,35.52 264.31,40.80 262.07,44.57 258.31,46.84 253.03,47.61" speed="9.27" />
    </edge>
    <edge function="internal" id=":j12_8">
        <lane id=":j12_8_0" index="0" length="9.09" shape="253.02,41.21 255.49,40.85 257.25,39.79 258.30,38.02 258.64,35.56" speed="6.52" />
    </edge>
    <edge function="internal" id=":j12_9">
        <lane id=":j12_9_0" index="0" length="20.88" shape="253.02,41.21 273.88,41.04" speed="13.89" />
        <lane id=":j12_9_1" index="1" length="20.88" shape="253.02,44.41 273.93,44.24" speed="13.89" />
    </edge>
    <edge function="internal" id=":j12_11">
        <lane id=":j12_11_0" index="0" length="4.83" shape="253.02,44.41 257.80,45.08" speed="9.24" />
    </edge>
    <edge function="internal" id=":j12_17">
        <lane id=":j12_17_0" index="0" length="14.61" shape="257.80,45.08 258.31,45.15 262.07,47.41 264.30,51.18 265.01,56.46" speed="9.24" />
    </edge>
    <edge function="internal" id=":j12_12">
        <lane id=":j12_12_0" index="0" length="9.03" shape="258.61,56.41 258.28,53.95 257.24,52.20 255.50,51.15 253.04,50.81" speed="6.48" />
    </edge>
    <edge function="internal" id=":j12_13">
        <lane id=":j12_13_0" index="0" length="20.87" shape="258.61,56.41 258.64,35.56" speed="13.89" />
        <lane id=":j12_13_1" index="1" length="20.87" shape="261.81,56.44 261.84,35.54" speed="13.89" />
    </edge>
    <edge function="internal" id=":j12_15">
        <lane id=":j12_15_0" index="0" length="19.51" shape="261.81,56.44 262.61,51.16 264.89,47.37 268.66,45.06 273.93,44.24" speed="9.37" />
    </edge>
    <edge function="internal" id=":j13_0">
        <lane id=":j13_0_0" index="0" length="12.25" shape="584.49,49.08 581.93,48.94 579.64,50.06 577.61,52.42 575.84,56.04" speed="7.73" />
    </edge>
    <edge function="internal" id=":j13_1">
        <lane id=":j13_1_0" index="0" length="22.39" shape="584.49,49.08 578.45,47.55 573.79,46.83 569.06,46.66 562.81,46.73" speed="13.89" />
        <lane id=":j13_1_1" index="1" length="22.39" shape="585.36,46.00 579.18,44.45 574.21,43.69 569.16,43.48 562.77,43.53" speed="13.89" />
    </edge>
    <edge function="internal" id=":j13_3">
        <lane id=":j13_3_0" index="0" length="18.83" shape="585.36,46.00 580.69,43.94 577.68,40.86 576.34,36.77 576.67,31.67" speed="9.38" />
    </edge>
    <edge function="internal" id=":j13_4">
        <lane id=":j13_4_0" index="0" length="9.03" shape="582.93,32.97 582.78,35.42 583.42,37.38 584.86,38.85 587.10,39.84" speed="6.67" />
    </edge>
    <edge function="internal" id=":j13_5">
        <lane id=":j13_5_0" index="0" length="23.91" shape="582.93,32.97 581.47,39.39 579.98,44.68 578.18,49.88 575.84,56.04" speed="13.89" />
        <lane id=":j13_5_1" index="1" length="23.91" shape="579.80,32.32 578.36,38.67 576.92,43.78 575.17,48.80 572.86,54.89" speed="13.89" />
    </edge>
    <edge function="internal" id=":j13_7">
        <lane id=":j13_7_0" index="0" length="4.55" shape="579.80,32.32 578.12,36.55" speed="10.79" />
    </edge>
    <edge function="internal" id=":j13_16">
        <lane id=":j13_16_0" index="0" length="17.68" shape="578.12,36.55 577.88,37.15 574.40,40.63 569.36,42.76 562.77,43.53" speed="10.79" />
    </edge>
    <edge function="internal" id=":j13_8">
        <lane id=":j13_8_0" index="0" length="13.50" shape="562.68,37.13 566.96,36.70 570.20,35.54 572.39,33.65 573.53,31.02" speed="8.51" />
    </edge>
    <edge function="internal" id=":j13_9">
        <lane id=":j13_9_0" index="0" length="24.22" shape="562.68,37.13 569.36,37.12 575.03,37.42 580.63,38.25 587.10,39.84" speed="13.89" />
        <lane id=":j13_9_1" index="1" length="24.22" shape="562.72,40.33 569.26,40.30 574.62,40.56 579.90,41.35 586.23,42.92" speed="13.89" />
    </edge>
    <edge function="internal" id=":j13_11">
        <lane id=":j13_11_0" index="0" length="22.70" shape="562.72,40.33 569.29,41.16 573.17,43.86 574.36,48.44 572.86,54.89" speed="8.85" />
    </edge>
    <edge function="internal" id=":j13_12">
        <lane id=":j13_12_0" index="0" length="9.13" shape="566.89,52.59 567.49,49.99 567.01,48.15 565.45,47.07 562.81,46.73" speed="5.84" />
    </edge>
    <edge function="internal" id=":j13_13">
        <lane id=":j13_13_0" index="0" length="22.87" shape="566.89,52.59 569.16,46.66 570.80,41.98 572.14,37.21 573.53,31.02" speed="13.89" />
        <lane id=":j13_13_1" index="1" length="22.87" shape="569.87,53.74 572.17,47.73 573.86,42.88 575.25,37.94 576.67,31.67" speed="13.89" />
    </edge>
    <edge function="internal" id=":j13_15">
        <lane id=":j13_15_0" index="0" length="6.33" shape="569.87,53.74 572.77,48.11" speed="10.16" />
    </edge>
    <edge function="internal" id=":j13_17">
        <lane id=":j13_17_0" index="0" length="15.51" shape="572.77,48.11 572.91,47.84 576.65,44.07 581.09,42.43 586.23,42.92" speed="10.16" />
    </edge>
    <edge function="internal" id=":j14_0">
        <lane id=":j14_0_0" index="0" length="9.90" shape="960.07,151.72 957.17,152.10 955.09,153.17 953.81,154.92 953.33,157.34" speed="6.88" />
    </edge>
    <edge function="internal" id=":j14_1">
        <lane id=":j14_1_0" index="0" length="23.60" shape="960.07,151.72 953.49,151.66 948.06,151.20 942.69,150.20 936.33,148.53" speed="13.89" />
        <lane id=":j14_1_1" index="1" length="23.60" shape="960.02,148.52 953.59,148.48 948.47,148.06 943.42,147.10 937.20,145.45" speed="13.89" />
    </edge>
    <edge function="internal" id=":j14_3">
        <lane id=":j14_3_0" index="0" length="20.59" shape="960.02,148.52 954.42,147.76 950.62,145.32 948.62,141.19 948.42,135.36" speed="9.15" />
    </edge>
    <edge function="internal" id=":j14_4">
        <lane id=":j14_4_0" index="0" length="9.36" shape="954.78,136.03 954.86,138.72 955.75,140.64 957.44,141.77 959.94,142.12" speed="6.36" />
    </edge>
    <edge function="internal" id=":j14_5">
        <lane id=":j14_5_0" index="0" length="21.49" shape="954.78,136.03 953.33,157.34" speed="13.89" />
        <lane id=":j14_5_1" index="1" length="21.49" shape="951.60,135.70 950.13,157.26" speed="13.89" />
    </edge>
    <edge function="internal" id=":j14_7">
        <lane id=":j14_7_0" index="0" length="3.99" shape="951.60,135.70 950.62,139.56" speed="9.02" />
    </edge>
    <edge function="internal" id=":j14_16">
        <lane id=":j14_16_0" index="0" length="16.73" shape="950.62,139.56 950.17,141.34 947.30,144.85 942.97,146.22 937.20,145.45" speed="9.02" />
    </edge>
    <edge function="internal" id=":j14_8">
        <lane id=":j14_8_0" index="0" length="9.05" shape="938.94,139.30 941.46,139.63 943.35,139.03 944.61,137.50 945.23,135.03" speed="6.17" />
    </edge>
    <edge function="internal" id=":j14_9">
        <lane id=":j14_9_0" index="0" length="21.77" shape="938.94,139.30 944.88,140.90 949.30,141.78 953.79,142.12 959.94,142.12" speed="13.89" />
        <lane id=":j14_9_1" index="1" length="21.77" shape="938.07,142.37 944.15,144.00 948.88,144.92 953.69,145.30 959.98,145.32" speed="13.89" />
    </edge>
    <edge function="internal" id=":j14_11">
        <lane id=":j14_11_0" index="0" length="20.83" shape="938.07,142.37 943.46,144.62 947.27,147.84 949.49,152.06 950.13,157.26" speed="10.61" />
    </edge>
    <edge function="internal" id=":j14_12">
        <lane id=":j14_12_0" index="0" length="12.29" shape="943.73,157.09 943.33,154.15 941.97,151.74 939.63,149.87 936.33,148.53" speed="8.26" />
    </edge>
    <edge function="internal" id=":j14_13">
        <lane id=":j14_13_0" index="0" length="21.98" shape="943.73,157.09 945.23,135.03" speed="13.89" />
        <lane id=":j14_13_1" index="1" length="21.98" shape="946.93,157.17 948.42,135.36" speed="13.89" />
    </edge>
    <edge function="internal" id=":j14_15">
        <lane id=":j14_15_0" index="0" length="5.21" shape="946.93,157.17 947.86,152.05" speed="9.52" />
    </edge>
    <edge function="internal" id=":j14_17">
        <lane id=":j14_17_0" index="0" length="14.71" shape="947.86,152.05 950.35,148.37 954.39,146.12 959.98,145.32" speed="9.52" />
    </edge>
    <edge function="internal" id=":j17_0">
        <lane id=":j17_0_0" index="0" length="9.14" shape="-67.12,-249.36 -67.53,-251.86 -68.63,-253.62 -70.40,-254.65 -72.86,-254.95" speed="6.55" />
    </edge>
    <edge function="internal" id=":j17_1">
        <lane id=":j17_1_0" index="0" length="20.97" shape="-67.12,-249.36 -67.48,-270.35" speed="13.89" />
        <lane id=":j17_1_1" index="1" length="20.97" shape="-63.92,-249.44 -64.28,-270.38" speed="13.89" />
    </edge>
    <edge function="internal" id=":j17_3">
        <lane id=":j17_3_0" index="0" length="19.49" shape="-63.92,-249.44 -63.30,-254.76 -61.12,-258.57 -57.38,-260.88 -52.08,-261.68" speed="9.23" />
    </edge>
    <edge function="internal" id=":j17_4">
        <lane id=":j17_4_0" index="0" length="9.03" shape="-52.04,-255.28 -54.49,-254.91 -56.22,-253.84 -57.23,-252.07 -57.52,-249.61" speed="6.47" />
    </edge>
    <edge function="internal" id=":j17_5">
        <lane id=":j17_5_0" index="0" length="20.85" shape="-52.04,-255.28 -72.86,-254.95" speed="13.89" />
        <lane id=":j17_5_1" index="1" length="20.85" shape="-52.06,-258.48 -72.94,-258.15" speed="13.89" />
    </edge>
    <edge function="internal" id=":j17_7">
        <lane id=":j17_7_0" index="0" length="4.79" shape="-52.06,-258.48 -56.81,-259.11" speed="9.28" />
    </edge>
    <edge function="internal" id=":j17_16">
        <lane id=":j17_16_0" index="0" length="14.65" shape="-56.81,-259.11 -57.37,-259.19 -61.17,-261.41 -63.48,-265.14 -64.28,-270.38" speed="9.28" />
    </edge>
    <edge function="internal" id=":j17_8">
        <lane id=":j17_8_0" index="0" length="9.13" shape="-57.88,-270.43 -57.50,-267.99 -56.41,-266.25 -54.62,-265.21 -52.11,-264.88" speed="6.54" />
    </edge>
    <edge function="internal" id=":j17_9">
        <lane id=":j17_9_0" index="0" length="20.86" shape="-57.88,-270.43 -57.52,-249.61" speed="13.89" />
        <lane id=":j17_9_1" index="1" length="20.86" shape="-61.08,-270.41 -60.72,-249.53" speed="13.89" />
    </edge>
    <edge function="internal" id=":j17_11">
        <lane id=":j17_11_0" index="0" length="19.38" shape="-61.08,-270.41 -61.78,-265.15 -63.99,-261.36 -67.71,-259.03 -72.94,-258.15" speed="9.32" />
    </edge>
    <edge function="internal" id=":j17_12">
        <lane id=":j17_12_0" index="0" length="9.17" shape="-73.09,-264.55 -70.62,-264.96 -68.86,-266.07 -67.81,-267.86 -67.48,-270.35" speed="6.59" />
    </edge>
    <edge function="internal" id=":j17_13">
        <lane id=":j17_13_0" index="0" length="20.96" shape="-73.09,-264.55 -52.11,-264.88" speed="13.89" />
        <lane id=":j17_13_1" index="1" length="20.96" shape="-73.01,-261.35 -52.08,-261.68" speed="13.89" />
    </edge>
    <edge function="internal" id=":j17_15">
        <lane id=":j17_15_0" index="0" length="5.15" shape="-73.01,-261.35 -67.90,-260.74" speed="9.28" />
    </edge>
    <edge function="internal" id=":j17_17">
        <lane id=":j17_17_0" index="0" length="14.29" shape="-67.90,-260.74 -67.75,-260.72 -63.95,-258.54 -61.61,-254.81 -60.72,-249.53" speed="9.28" />
    </edge>
    <edge function="internal" id=":j18_0">
        <lane id=":j18_0_0" index="0" length="9.08" shape="78.07,-250.61 77.67,-253.08 76.58,-254.83 74.82,-255.88 72.37,-256.21" speed="6.56" />
    </edge>
    <edge function="internal" id=":j18_1">
        <lane id=":j18_1_0" index="0" length="19.32" shape="81.27,-250.68 81.90,-255.94 84.05,-259.73 87.74,-262.07 92.96,-262.95" speed="9.26" />
    </edge>
    <edge function="internal" id=":j18_2">
        <lane id=":j18_2_0" index="0" length="9.02" shape="93.12,-256.56 90.69,-256.14 88.97,-255.05 87.96,-253.28 87.67,-250.83" speed="6.51" />
    </edge>
    <edge function="internal" id=":j18_3">
        <lane id=":j18_3_0" index="0" length="20.72" shape="93.12,-256.56 72.37,-256.21" speed="13.89" />
        <lane id=":j18_3_1" index="1" length="20.72" shape="93.04,-259.75 72.35,-259.41" speed="13.89" />
    </edge>
    <edge function="internal" id=":j18_5">
        <lane id=":j18_5_0" index="0" length="20.61" shape="72.30,-265.81 92.88,-266.15" speed="13.89" />
        <lane id=":j18_5_1" index="1" length="20.61" shape="72.33,-262.61 92.96,-262.95" speed="13.89" />
    </edge>
    <edge function="internal" id=":j18_7">
        <lane id=":j18_7_0" index="0" length="4.70" shape="72.33,-262.61 76.99,-261.98" speed="9.30" />
    </edge>
    <edge function="internal" id=":j18_8">
        <lane id=":j18_8_0" index="0" length="14.58" shape="76.99,-261.98 77.54,-261.91 81.30,-259.69 83.61,-255.98 84.47,-250.75" speed="9.30" />
    </edge>
    <edge function="internal" id=":j19_0">
        <lane id=":j19_0_0" index="0" length="9.03" shape="256.92,-255.10 256.56,-257.55 255.49,-259.28 253.72,-260.29 251.26,-260.58" speed="6.46" />
    </edge>
    <edge function="internal" id=":j19_1">
        <lane id=":j19_1_0" index="0" length="20.85" shape="256.92,-255.10 256.65,-275.92" speed="13.89" />
        <lane id=":j19_1_1" index="1" length="20.85" shape="260.12,-255.11 259.84,-275.98" speed="13.89" />
    </edge>
    <edge function="internal" id=":j19_3">
        <lane id=":j19_3_0" index="0" length="4.80" shape="260.12,-255.11 260.77,-259.87" speed="9.26" />
    </edge>
    <edge function="internal" id=":j19_16">
        <lane id=":j19_16_0" index="0" length="14.67" shape="260.77,-259.87 260.84,-260.42 263.08,-264.21 266.84,-266.48 272.11,-267.24" speed="9.26" />
    </edge>
    <edge function="internal" id=":j19_4">
        <lane id=":j19_4_0" index="0" length="9.10" shape="272.10,-260.84 269.65,-260.48 267.90,-259.42 266.86,-257.64 266.52,-255.15" speed="6.51" />
    </edge>
    <edge function="internal" id=":j19_5">
        <lane id=":j19_5_0" index="0" length="20.89" shape="272.10,-260.84 251.26,-260.58" speed="13.89" />
        <lane id=":j19_5_1" index="1" length="20.89" shape="272.10,-264.04 251.18,-263.78" speed="13.89" />
    </edge>
    <edge function="internal" id=":j19_7">
        <lane id=":j19_7_0" index="0" length="19.43" shape="272.10,-264.04 266.83,-264.79 263.03,-267.03 260.70,-270.76 259.84,-275.98" speed="9.35" />
    </edge>
    <edge function="internal" id=":j19_8">
        <lane id=":j19_8_0" index="0" length="9.27" shape="266.24,-276.12 266.65,-273.63 267.77,-271.86 269.59,-270.79 272.11,-270.44" speed="6.64" />
    </edge>
    <edge function="internal" id=":j19_9">
        <lane id=":j19_9_0" index="0" length="20.94" shape="266.24,-276.12 266.52,-255.15" speed="13.89" />
        <lane id=":j19_9_1" index="1" length="20.94" shape="263.04,-276.05 263.32,-255.13" speed="13.89" />
    </edge>
    <edge function="internal" id=":j19_11">
        <lane id=":j19_11_0" index="0" length="5.14" shape="263.04,-276.05 262.41,-270.95" speed="9.29" />
    </edge>
    <edge function="internal" id=":j19_17">
        <lane id=":j19_17_0" index="0" length="14.31" shape="262.41,-270.95 262.40,-270.80 260.20,-267.00 256.46,-264.66 251.18,-263.78" speed="9.29" />
    </edge>
    <edge function="internal" id=":j19_12">
        <lane id=":j19_12_0" index="0" length="9.16" shape="251.01,-270.18 253.52,-270.59 255.30,-271.69 256.34,-273.46 256.65,-275.92" speed="6.56" />
    </edge>
    <edge function="internal" id=":j19_13">
        <lane id=":j19_13_0" index="0" length="21.06" shape="251.01,-270.18 272.11,-270.44" speed="13.89" />
        <lane id=":j19_13_1" index="1" length="21.06" shape="251.10,-266.98 272.11,-267.24" speed="13.89" />
    </edge>
    <edge function="internal" id=":j19_15">
        <lane id=":j19_15_0" index="0" length="19.50" shape="251.10,-266.98 256.42,-266.36 260.23,-264.17 262.53,-260.43 263.32,-255.13" speed="9.23" />
    </edge>
    <edge function="internal" id=":j20_0">
        <lane id=":j20_0_0" index="0" length="9.28" shape="648.94,-256.47 646.46,-257.02 644.51,-256.56 643.08,-255.06 642.19,-252.55" speed="6.24" />
    </edge>
    <edge function="internal" id=":j20_1">
        <lane id=":j20_1_0" index="0" length="22.04" shape="648.94,-256.47 643.15,-258.60 638.74,-259.76 634.21,-260.24 628.04,-260.35" speed="13.89" />
        <lane id=":j20_1_1" index="1" length="22.04" shape="650.10,-259.45 644.12,-261.62 639.33,-262.85 634.40,-263.41 628.04,-263.55" speed="13.89" />
    </edge>
    <edge function="internal" id=":j20_3">
        <lane id=":j20_3_0" index="0" length="21.33" shape="650.10,-259.45 644.94,-262.18 641.25,-265.77 639.03,-270.22 638.29,-275.54" speed="11.38" />
    </edge>
    <edge function="internal" id=":j20_4">
        <lane id=":j20_4_0" index="0" length="13.62" shape="644.69,-275.55 645.17,-272.24 646.62,-269.45 649.04,-267.18 652.41,-265.42" speed="9.18" />
    </edge>
    <edge function="internal" id=":j20_5">
        <lane id=":j20_5_0" index="0" length="22.87" shape="644.69,-275.55 644.59,-269.12 644.21,-263.97 643.44,-258.87 642.19,-252.55" speed="13.89" />
        <lane id=":j20_5_1" index="1" length="22.87" shape="641.49,-275.55 641.40,-269.21 641.04,-264.30 640.30,-259.42 639.06,-253.20" speed="13.89" />
    </edge>
    <edge function="internal" id=":j20_7">
        <lane id=":j20_7_0" index="0" length="4.91" shape="641.49,-275.55 640.72,-270.70" speed="9.52" />
    </edge>
    <edge function="internal" id=":j20_16">
        <lane id=":j20_16_0" index="0" length="15.63" shape="640.72,-270.70 640.65,-270.29 638.13,-266.54 633.93,-264.29 628.04,-263.55" speed="9.52" />
    </edge>
    <edge function="internal" id=":j20_8">
        <lane id=":j20_8_0" index="0" length="10.22" shape="628.05,-269.95 631.13,-270.29 633.33,-271.34 634.65,-273.09 635.09,-275.54" speed="6.87" />
    </edge>
    <edge function="internal" id=":j20_9">
        <lane id=":j20_9_0" index="0" length="24.37" shape="628.05,-269.95 634.77,-269.74 640.49,-269.03 646.08,-267.65 652.41,-265.42" speed="13.89" />
        <lane id=":j20_9_1" index="1" length="24.37" shape="628.05,-266.75 634.58,-266.58 639.91,-265.94 645.10,-264.63 651.26,-262.43" speed="13.89" />
    </edge>
    <edge function="internal" id=":j20_11">
        <lane id=":j20_11_0" index="0" length="20.99" shape="628.05,-266.75 633.92,-265.89 637.71,-263.35 639.42,-259.12 639.06,-253.20" speed="8.99" />
    </edge>
    <edge function="internal" id=":j20_12">
        <lane id=":j20_12_0" index="0" length="9.06" shape="632.79,-254.50 632.95,-257.05 632.21,-258.88 630.57,-259.98 628.04,-260.35" speed="6.11" />
    </edge>
    <edge function="internal" id=":j20_13">
        <lane id=":j20_13_0" index="0" length="21.56" shape="632.79,-254.50 634.01,-260.51 634.71,-264.94 635.02,-269.41 635.09,-275.54" speed="13.89" />
        <lane id=":j20_13_1" index="1" length="21.56" shape="635.92,-253.85 637.15,-259.96 637.87,-264.62 638.21,-269.31 638.29,-275.54" speed="13.89" />
    </edge>
    <edge function="internal" id=":j20_15">
        <lane id=":j20_15_0" index="0" length="4.81" shape="635.92,-253.85 637.55,-258.37" speed="9.07" />
    </edge>
    <edge function="internal" id=":j20_17">
        <lane id=":j20_17_0" index="0" length="16.09" shape="637.55,-258.37 637.93,-259.43 641.15,-262.72 645.60,-263.72 651.26,-262.43" speed="9.07" />
    </edge>
    <edge function="internal" id=":j21_0">
        <lane id=":j21_0_0" index="0" length="9.62" shape="988.63,-129.10 985.91,-128.71 983.89,-127.67 982.57,-125.96 981.94,-123.60" speed="7.00" />
    </edge>
    <edge function="internal" id=":j21_1">
        <lane id=":j21_1_0" index="0" length="24.97" shape="988.63,-129.10 981.84,-129.30 975.94,-130.20 970.17,-131.81 963.75,-134.15" speed="13.89" />
        <lane id=":j21_1_1" index="1" length="24.97" shape="988.57,-132.30 981.97,-132.47 976.49,-133.29 971.14,-134.82 964.91,-137.13" speed="13.89" />
    </edge>
    <edge function="internal" id=":j21_3">
        <lane id=":j21_3_0" index="0" length="21.99" shape="988.57,-132.30 983.31,-133.15 979.51,-135.92 977.15,-140.63 976.24,-147.26" speed="9.86" />
    </edge>
    <edge function="internal" id=":j21_4">
        <lane id=":j21_4_0" index="0" length="11.76" shape="982.64,-147.41 983.08,-143.56 984.20,-140.82 985.98,-139.21 988.44,-138.70" speed="7.35" />
    </edge>
    <edge function="internal" id=":j21_5">
        <lane id=":j21_5_0" index="0" length="23.64" shape="982.64,-147.41 982.78,-140.87 982.77,-135.49 982.52,-130.11 981.94,-123.60" speed="13.89" />
        <lane id=":j21_5_1" index="1" length="23.64" shape="979.44,-147.34 979.58,-140.86 979.58,-135.62 979.34,-130.38 978.76,-123.93" speed="13.89" />
    </edge>
    <edge function="internal" id=":j21_7">
        <lane id=":j21_7_0" index="0" length="5.19" shape="979.44,-147.34 978.85,-142.18" speed="8.84" />
    </edge>
    <edge function="internal" id=":j21_16">
        <lane id=":j21_16_0" index="0" length="17.65" shape="978.85,-142.18 978.68,-140.70 976.00,-136.79 971.41,-135.60 964.91,-137.13" speed="8.84" />
    </edge>
    <edge function="internal" id=":j21_8">
        <lane id=":j21_8_0" index="0" length="9.14" shape="967.23,-143.10 969.83,-142.49 971.67,-142.96 972.74,-144.53 973.04,-147.18" speed="5.82" />
    </edge>
    <edge function="internal" id=":j21_9">
        <lane id=":j21_9_0" index="0" length="22.50" shape="967.23,-143.10 973.07,-140.86 977.58,-139.47 982.22,-138.80 988.44,-138.70" speed="13.89" />
        <lane id=":j21_9_1" index="1" length="22.50" shape="966.07,-140.12 972.10,-137.84 977.03,-136.38 982.09,-135.63 988.51,-135.50" speed="13.89" />
    </edge>
    <edge function="internal" id=":j21_11">
        <lane id=":j21_11_0" index="0" length="22.23" shape="966.07,-140.12 972.05,-137.09 976.15,-133.39 978.39,-129.00 978.76,-123.93" speed="11.03" />
    </edge>
    <edge function="internal" id=":j21_12">
        <lane id=":j21_12_0" index="0" length="13.84" shape="972.39,-124.60 972.09,-127.43 970.54,-129.96 967.77,-132.21 963.75,-134.15" speed="8.80" />
    </edge>
    <edge function="internal" id=":j21_13">
        <lane id=":j21_13_0" index="0" length="22.82" shape="972.39,-124.60 972.97,-130.92 973.20,-135.87 973.19,-140.83 973.04,-147.18" speed="13.89" />
        <lane id=":j21_13_1" index="1" length="22.82" shape="975.57,-124.27 976.15,-130.65 976.39,-135.74 976.38,-140.85 976.24,-147.26" speed="13.89" />
    </edge>
    <edge function="internal" id=":j21_15">
        <lane id=":j21_15_0" index="0" length="4.42" shape="975.57,-124.27 976.67,-128.55" speed="9.63" />
    </edge>
    <edge function="internal" id=":j21_17">
        <lane id=":j21_17_0" index="0" length="14.62" shape="976.67,-128.55 976.81,-129.10 979.38,-132.58 983.28,-134.71 988.51,-135.50" speed="9.63" />
    </edge>
    <edge function="internal" id=":j24_0">
        <lane id=":j24_0_0" index="0" length="10.87" shape="-69.64,-524.33 -69.97,-527.60 -70.89,-530.17 -72.41,-532.06 -74.53,-533.26" speed="8.17" />
    </edge>
    <edge function="internal" id=":j24_1">
        <lane id=":j24_1_0" index="0" length="19.56" shape="-66.44,-524.36 -65.72,-529.69 -63.46,-533.47 -59.67,-535.69 -54.33,-536.35" speed="9.22" />
    </edge>
    <edge function="internal" id=":j24_2">
        <lane id=":j24_2_0" index="0" length="9.03" shape="-54.45,-529.96 -56.91,-529.65 -58.67,-528.62 -59.71,-526.88 -60.04,-524.42" speed="6.45" />
    </edge>
    <edge function="internal" id=":j24_3">
        <lane id=":j24_3_0" index="0" length="19.99" shape="-54.45,-529.96 -60.48,-530.08 -64.70,-530.42 -68.82,-531.36 -74.53,-533.26" speed="13.89" />
        <lane id=":j24_3_1" index="1" length="19.99" shape="-54.39,-533.16 -60.16,-533.26 -64.13,-533.57 -67.99,-534.45 -73.45,-536.28" speed="13.89" />
    </edge>
    <edge function="internal" id=":j24_5">
        <lane id=":j24_5_0" index="0" length="17.92" shape="-71.31,-542.31 -66.43,-540.68 -62.98,-539.91 -59.43,-539.65 -54.27,-539.55" speed="13.89" />
        <lane id=":j24_5_1" index="1" length="17.92" shape="-72.38,-539.29 -67.21,-537.57 -63.55,-536.74 -59.80,-536.45 -54.33,-536.35" speed="13.89" />
    </edge>