<routes>
    <trip id="CAV_0" depart="0" from="j2tj3" to="j4tj6" />
    <trip id="HDV_1" depart="0" from="j2tj3" to="j1tj8" />
    <trip id="HDV_2" depart="0" from="j6tj4" to="j3tj2" />
    <trip id="CAV_3" depart="0" from="j5tj3" to="j1tj8" />
    <trip id="HDV_4" depart="0" from="j6tj4" to="j3tj2" />
    <trip id="HDV_5" depart="0" from="j8tj1" to="j3tj5" />
    <trip id="CAV_6" depart="0" from="j2tj3" to="j4tj6" />
    <trip id="HDV_7" depart="0" from="j8tj1" to="j3tj5" />
    <trip id="HDV_8" depart="0" from="j6tj4" to="j3tj2" />
    <trip id="CAV_9" depart="0" from="j2tj3" to="j1tj8" />
    <trip id="HDV_10" depart="0" from="j8tj1" to="j3tj2" />
    <trip id="HDV_11" depart="0" from="j8tj1" to="j3tj2" />
    <trip id="CAV_12" depart="0" from="j2tj3" to="j4tj6" />
    <trip id="HDV_13" depart="0" from="j6tj4" to="j3tj2" />
    <trip id="HDV_14" depart="0" from="j8tj1" to="j3tj2" />
    <trip id="CAV_15" depart="0" from="j2tj3" to="j1tj8" />
    <trip id="HDV_16" depart="0" from="j5tj3" to="j1tj8" />
    <trip id="HDV_17" depart="0" from="j8tj1" to="j3tj2" />
    <trip id="CAV_18" depart="0" from="j5tj3" to="j1tj8" />
    <trip id="HDV_19" depart="0" from="j2tj3" to="j1tj8" />
    <trip id="HDV_20" depart="0" from="j8tj1" to="j3tj5" />
    <trip id="CAV_21" depart="0" from="j2tj3" to="j1tj8" />
    <trip id="HDV_22" depart="0" from="j8tj1" to="j3tj2" />
    <trip id="HDV_23" depart="0" from="j6tj4" to="j3tj2" />
    <trip id="CAV_24" depart="0" from="j8tj1" to="j3tj5" />
    <trip id="HDV_25" depart="0" from="j2tj3" to="j4tj6" />
    <trip id="HDV_26" depart="0" from="j8tj1" to="j3tj5" />
    <trip id="CAV_27" depart="54" from="j2tj3" to="j1tj8" />
    <trip id="HDV_28" depart="209" from="j2tj3" to="j1tj8" />
    <trip id="HDV_29" depart="262" from="j6tj4" to="j3tj2" />
    <trip id="CAV_30" depart="340" from="j2tj3" to="j4tj6" />
    <trip id="HDV_31" depart="369" from="j2tj3" to="j1tj8" />
    <trip id="HDV_32" depart="397" from="j2tj3" to="j1tj8" />
    <trip id="CAV_33" depart="546" from="j6tj4" to="j3tj2" />
    <trip id="HDV_34" depart="550" from="j8tj1" to="j3tj2" />
    <trip id="HDV_35" depart="600" from="j2tj3" to="j1tj8" />
    <trip id="CAV_36" depart="673" from="j2tj3" to="j1tj8" />
    <trip id="HDV_37" depart="680" from="j2tj3" to="j4tj6" />
    <trip id="HDV_38" depart="713" from="j8tj1" to="j3tj2" />
    <trip id="CAV_39" depart="790" from="j8tj1" to="j3tj5" />
    <trip id="HDV_40" depart="795" from="j6tj4" to="j3tj2" />
    <trip id="HDV_41" depart="804" from="j2tj3" to="j1tj8" />
    <trip id="CAV_42" depart="849" from="j6tj4" to="j3tj2" />
    <trip id="HDV_43" depart="870" from="j8tj1" to="j3tj5" />
    <trip id="HDV_44" depart="904" from="j2tj3" to="j4tj6" />
    <trip id="CAV_45" depart="980" from="j8tj1" to="j3tj5" />
    <trip id="HDV_46" depart="985" from="j2tj3" to="j1tj8" />
    <trip id="HDV_47" depart="1006" from="j5tj3" to="j1tj8" />
    <trip id="CAV_48" depart="1112" from="j5tj3" to="j1tj8" />
    <trip id="HDV_49" depart="1164" from="j6tj4" to="j3tj2" />
    <trip id="HDV_50" depart="1199" from="j5tj3" to="j1tj8" />
    <trip id="CAV_51" depart="1213" from="j2tj3" to="j4tj6" />
    <trip id="HDV_52" depart="1232" from="j5tj3" to="j1tj8" />
    <trip id="HDV_53" depart="1241" from="j8tj1" to="j3tj5" />
    <trip id="CAV_54" depart="1252" from="j2tj3" to="j4tj6" />
    <trip id="HDV_55" depart="1295" from="j8tj1" to="j3tj5" />
    <trip id="HDV_56" depart="1359" from="j8tj1" to="j3tj2" />
    <trip id="CAV_57" depart="1600" from="j2tj3" to="j4tj6" />
    <trip id="HDV_58" depart="1614" from="j8tj1" to="j3tj2" />
    <trip id="HDV_59" depart="1658" from="j8tj1" to="j3tj2" />
    <trip id="CAV_60" depart="1693" from="j5tj3" to="j1tj8" />
    <trip id="HDV_61" depart="1779" from="j2tj3" to="j1tj8" />
    <trip id="HDV_62" depart="1921" from="j6tj4" to="j3tj2" />
    <trip id="CAV_63" depart="1950" from="j2tj3" to="j1tj8" />
    <trip id="HDV_64" depart="1964" from="j8tj1" to="j3tj5" />
    <trip id="HDV_65" depart="1981" from="j6tj4" to="j3tj2" />
    <trip id="CAV_66" depart="2028" from="j8tj1" to="j3tj2" />
    <trip id="HDV_67" depart="2030" from="j2tj3" to="j4tj6" />
    <trip id="HDV_68" depart="2075" from="j2tj3" to="j1tj8" />
    <trip id="CAV_69" depart="2136" from="j2tj3" to="j1tj8" />
    <trip id="HDV_70" depart="2202" from="j2tj3" to="j4tj6" />
    <trip id="HDV_71" depart="2205" from="j8tj1" to="j3tj5" />
    <trip id="CAV_72" depart="2211" from="j8tj1" to="j3tj5" />
    <trip id="HDV_73" depart="2224" from="j8tj1" to="j3tj2" />
    <trip id="HDV_74" depart="2240" from="j6tj4" to="j3tj2" />
    <trip id="CAV_75" depart="2252" from="j8tj1" to="j3tj2" />
    <trip id="HDV_76" depart="2255" from="j8tj1" to="j3tj2" />
    <trip id="HDV_77" depart="2271" from="j8tj1" to="j3tj2" />
    <trip id="CAV_78" depart="2367" from="j2tj3" to="j1tj8" />
    <trip id="HDV_79" depart="2556" from="j8tj1" to="j3tj5" />
    <trip id="HDV_80" depart="2605" from="j8tj1" to="j3tj5" />
    <trip id="CAV_81" depart="2607" from="j2tj3" to="j4tj6" />
    <trip id="HDV_82" depart="2620" from="j6tj4" to="j3tj2" />
    <trip id="HDV_83" depart="2621" from="j8tj1" to="j3tj5" />
    <trip id="CAV_84" depart="2622" from="j2tj3" to="j4tj6" />
    <trip id="HDV_85" depart="2665" from="j6tj4" to="j3tj2" />
    <trip id="HDV_86" depart="2756" from="j6tj4" to="j3tj2" />
    <trip id="CAV_87" depart="2768" from="j2tj3" to="j1tj8" />
    <trip id="HDV_88" depart="2782" from="j2tj3" to="j4tj6" />
    <trip id="HDV_89" depart="2790" from="j8tj1" to="j3tj5" />
    <trip id="CAV_90" depart="2793" from="j2tj3" to="j1tj8" />
    <trip id="HDV_91" depart="2813" from="j2tj3" to="j1tj8" />
    <trip id="HDV_92" depart="2926" from="j8tj1" to="j3tj2" />
    <trip id="CAV_93" depart="3003" from="j8tj1" to="j3tj2" />
    <trip id="HDV_94" depart="3079" from="j5tj3" to="j1tj8" />
    <trip id="HDV_95" depart="3088" from="j8tj1" to="j3tj2" />
    <trip id="CAV_96" depart="3095" from="j5tj3" to="j1tj8" />
    <trip id="HDV_97" depart="3107" from="j5tj3" to="j1tj8" />
    <trip id="HDV_98" depart="3165" from="j8tj1" to="j3tj2" />
    <trip id="CAV_99" depart="3188" from="j2tj3" to="j4tj6" />
    <trip id="HDV_100" depart="3198" from="j5tj3" to="j1tj8" />
    <trip id="HDV_101" depart="3218" from="j2tj3" to="j4tj6" />
    <trip id="CAV_102" depart="3223" from="j8tj1" to="j3tj5" />
    <trip id="HDV_103" depart="3227" from="j2tj3" to="j4tj6" />
    <trip id="HDV_104" depart="3253" from="j2tj3" to="j1tj8" />
    <trip id="CAV_105" depart="3260" from="j5tj3" to="j1tj8" />
    <trip id="HDV_106" depart="3297" from="j2tj3" to="j4tj6" />
    <trip id="HDV_107" depart="3350" from="j6tj4" to="j3tj2" />
    <trip id="CAV_108" depart="3377" from="j5tj3" to="j1tj8" />
    <trip id="HDV_109" depart="3471" from="j2tj3" to="j1tj8" />
    <trip id="HDV_110" depart="3487" from="j8tj1" to="j3tj2" />
    <trip id="CAV_111" depart="3496" from="j6tj4" to="j3tj2" />
    <trip id="HDV_112" depart="3516" from="j2tj3" to="j4tj6" />
    <trip id="HDV_113" depart="3528" from="j5tj3" to="j1tj8" />
    <trip id="CAV_114" depart="3530" from="j2tj3" to="j1tj8" />
    <trip id="HDV_115" depart="3533" from="j2tj3" to="j4tj6" />
    <trip id="HDV_116" depart="3535" from="j8tj1" to="j3tj2" />
    <trip id="CAV_117" depart="3546" from="j5tj3" to="j1tj8" />
    <trip id="HDV_118" depart="3583" from="j2tj3" to="j1tj8" />
    <trip id="HDV_119" depart="3607" from="j5tj3" to="j1tj8" />
    <trip id="CAV_120" depart="3609" from="j2tj3" to="j1tj8" />
    <trip id="HDV_121" depart="3644" from="j2tj3" to="j1tj8" />
    <trip id="HDV_122" depart="3670" from="j5tj3" to="j1tj8" />
    <trip id="CAV_123" depart="3711" from="j8tj1" to="j3tj5" />
    <trip id="HDV_124" depart="3717" from="j6tj4" to="j3tj2" />
    <trip id="HDV_125" depart="3792" from="j2tj3" to="j1tj8" />
    <trip id="CAV_126" depart="3813" from="j2tj3" to="j4tj6" />
    <trip id="HDV_127" depart="3824" from="j8tj1" to="j3tj5" />
    <trip id="HDV_128" depart="3865" from="j8tj1" to="j3tj2" />
    <trip id="CAV_129" depart="3869" from="j8tj1" to="j3tj2" />
    <trip id="HDV_130" depart="3904" from="j5tj3" to="j1tj8" />
    <trip id="HDV_131" depart="3906" from="j8tj1" to="j3tj5" />
    <trip id="CAV_132" depart="3915" from="j6tj4" to="j3tj2" />
    <trip id="HDV_133" depart="3932" from="j8tj1" to="j3tj2" />
    <trip id="HDV_134" depart="3973" from="j6tj4" to="j3tj2" />
    <trip id="CAV_135" depart="4006" from="j2tj3" to="j1tj8" />
    <trip id="HDV_136" depart="4019" from="j5tj3" to="j1tj8" />
    <trip id="HDV_137" depart="4025" from="j5tj3" to="j1tj8" />
    <trip id="CAV_138" depart="4056" from="j6tj4" to="j3tj2" />
    <trip id="HDV_139" depart="4063" from="j8tj1" to="j3tj5" />
    <trip id="HDV_140" depart="4069" from="j8tj1" to="j3tj5" />
    <trip id="CAV_141" depart="4105" from="j6tj4" to="j3tj2" />
    <trip id="HDV_142" depart="4140" from="j8tj1" to="j3tj5" />
    <trip id="HDV_143" depart="4142" from="j2tj3" to="j1tj8" />
    <trip id="CAV_144" depart="4238" from="j6tj4" to="j3tj2" />
    <trip id="HDV_145" depart="4250" from="j2tj3" to="j1tj8" />
    <trip id="HDV_146" depart="4256" from="j8tj1" to="j3tj2" />
    <trip id="CAV_147" depart="4266" from="j2tj3" to="j4tj6" />
    <trip id="HDV_148" depart="4313" from="j2tj3" to="j1tj8" />
    <trip id="HDV_149" depart="4335" from="j8tj1" to="j3tj5" />
    <trip id="CAV_150" depart="4345" from="j6tj4" to="j3tj2" />
    <trip id="HDV_151" depart="4374" from="j2tj3" to="j1tj8" />
    <trip id="HDV_152" depart="4446" from="j8tj1" to="j3tj2" />
    <trip id="CAV_153" depart="4472" from="j5tj3" to="j1tj8" />
    <trip id="HDV_154" depart="4503" from="j6tj4" to="j3tj2" />
    <trip id="HDV_155" depart="4592" from="j8tj1" to="j3tj2" />
    <trip id="CAV_156" depart="4609" from="j8tj1" to="j3tj2" />
    <trip id="HDV_157" depart="4620" from="j6tj4" to="j3tj2" />
    <trip id="HDV_158" depart="4620" from="j2tj3" to="j4tj6" />
    <trip id="CAV_159" depart="4622" from="j2tj3" to="j1tj8" />
    <trip id="HDV_160" depart="4666" from="j6tj4" to="j3tj2" />
    <trip id="HDV_161" depart="4696" from="j8tj1" to="j3tj2" />
    <trip id="CAV_162" depart="4735" from="j2tj3" to="j4tj6" />
    <trip id="HDV_163" depart="4752" from="j6tj4" to="j3tj2" />
    <trip id="HDV_164" depart="4788" from="j6tj4" to="j3tj2" />
    <trip id="CAV_165" depart="4791" from="j6tj4" to="j3tj2" />
    <trip id="HDV_166" depart="4795" from="j2tj3" to="j1tj8" />
    <trip id="HDV_167" depart="4858" from="j5tj3" to="j1tj8" />
    <trip id="CAV_168" depart="4882" from="j8tj1" to="j3tj5" />
    <trip id="HDV_169" depart="4897" from="j8tj1" to="j3tj5" />
    <trip id="HDV_170" depart="4899" from="j6tj4" to="j3tj2" />
    <trip id="CAV_171" depart="4908" from="j5tj3" to="j1tj8" />
    <trip id="HDV_172" depart="4942" from="j8tj1" to="j3tj2" />
    <trip id="HDV_173" depart="4943" from="j6tj4" to="j3tj2" />
    <trip id="CAV_174" depart="4952" from="j2tj3" to="j1tj8" />
    <trip id="HDV_175" depart="4956" from="j2tj3" to="j1tj8" />
    <trip id="HDV_176" depart="4977" from="j8tj1" to="j3tj2" />
    <trip id="CAV_177" depart="4985" from="j2tj3" to="j1tj8" />
    <trip id="HDV_178" depart="5037" from="j6tj4" to="j3tj2" />
    <trip id="HDV_179" depart="5082" from="j6tj4" to="j3tj2" />
    <trip id="CAV_180" depart="5108" from="j8tj1" to="j3tj2" />
    <trip id="HDV_181" depart="5146" from="j8tj1" to="j3tj5" />
    <trip id="HDV_182" depart="5185" from="j6tj4" to="j3tj2" />
    <trip id="CAV_183" depart="5219" from="j8tj1" to="j3tj5" />
    <trip id="HDV_184" depart="5281" from="j2tj3" to="j4tj6" />
    <trip id="HDV_185" depart="5282" from="j2tj3" to="j4tj6" />
    <trip id="CAV_186" depart="5311" from="j2tj3" to="j1tj8" />
    <trip id="HDV_187" depart="5319" from="j5tj3" to="j1tj8" />
    <trip id="HDV_188" depart="5365" from="j2tj3" to="j4tj6" />
    <trip id="CAV_189" depart="5367" from="j8tj1" to="j3tj5" />
    <trip id="HDV_190" depart="5389" from="j2tj3" to="j4tj6" />
    <trip id="HDV_191" depart="5414" from="j2tj3" to="j1tj8" />
    <trip id="CAV_192" depart="5414" from="j8tj1" to="j3tj5" />
    <trip id="HDV_193" depart="5435" from="j5tj3" to="j1tj8" />
    <trip id="HDV_194" depart="5437" from="j8tj1" to="j3tj2" />
    <trip id="CAV_195" depart="5483" from="j6tj4" to="j3tj2" />
    <trip id="HDV_196" depart="5512" from="j2tj3" to="j4tj6" />
    <trip id="HDV_197" depart="5516" from="j2tj3" to="j1tj8" />
    <trip id="CAV_198" depart="5558" from="j8tj1" to="j3tj2" />
    <trip id="HDV_199" depart="5574" from="j8tj1" to="j3tj2" />
    <trip id="HDV_200" depart="5580" from="j8tj1" to="j3tj5" />
    <trip id="CAV_201" depart="5624" from="j5tj3" to="j1tj8" />
    <trip id="HDV_202" depart="5631" from="j5tj3" to="j1tj8" />
    <trip id="HDV_203" depart="5647" from="j5tj3" to="j1tj8" />
    <trip id="CAV_204" depart="5653" from="j8tj1" to="j3tj2" />
    <trip id="HDV_205" depart="5657" from="j2tj3" to="j1tj8" />
    <trip id="HDV_206" depart="5677" from="j2tj3" to="j1tj8" />
    <trip id="CAV_207" depart="5738" from="j6tj4" to="j3tj2" />
    <trip id="HDV_208" depart="5742" from="j6tj4" to="j3tj2" />
    <trip id="HDV_209" depart="5757" from="j6tj4" to="j3tj2" />
    <trip id="CAV_210" depart="5761" from="j2tj3" to="j4tj6" />
    <trip id="HDV_211" depart="5761" from="j5tj3" to="j1tj8" />
    <trip id="HDV_212" depart="5787" from="j8tj1" to="j3tj2" />
    <trip id="CAV_213" depart="5818" from="j8tj1" to="j3tj2" />
    <trip id="HDV_214" depart="5885" from="j8tj1" to="j3tj5" />
    <trip id="HDV_215" depart="5914" from="j5tj3" to="j1tj8" />
    <trip id="CAV_216" depart="5943" from="j8tj1" to="j3tj5" />
    <trip id="HDV_217" depart="5954" from="j5tj3" to="j1tj8" />
    <trip id="HDV_218" depart="6016" from="j5tj3" to="j1tj8" />
    <trip id="CAV_219" depart="6027" from="j6tj4" to="j3tj2" />
    <trip id="HDV_220" depart="6028" from="j8tj1" to="j3tj2" />
    <trip id="HDV_221" depart="6125" from="j2tj3" to="j4tj6" />
    <trip id="CAV_222" depart="6131" from="j8tj1" to="j3tj2" />
    <trip id="HDV_223" depart="6197" from="j6tj4" to="j3tj2" />
    <trip id="HDV_224" depart="6212" from="j8tj1" to="j3tj5" />
    <trip id="CAV_225" depart="6247" from="j2tj3" to="j1tj8" />
    <trip id="HDV_226" depart="6271" from="j2tj3" to="j1tj8" />
    <trip id="HDV_227" depart="6277" from="j2tj3" to="j1tj8" />
    <trip id="CAV_228" depart="6344" from="j5tj3" to="j1tj8" />
    <trip id="HDV_229" depart="6373" from="j8tj1" to="j3tj5" />
    <trip id="HDV_230" depart="6380" from="j2tj3" to="j4tj6" />
    <trip id="CAV_231" depart="6399" from="j8tj1" to="j3tj2" />
    <trip id="HDV_232" depart="6405" from="j6tj4" to="j3tj2" />
    <trip id="HDV_233" depart="6418" from="j5tj3" to="j1tj8" />
    <trip id="CAV_234" depart="6425" from="j2tj3" to="j1tj8" />
    <trip id="HDV_235" depart="6435" from="j6tj4" to="j3tj2" />
    <trip id="HDV_236" depart="6445" from="j6tj4" to="j3tj2" />
    <trip id="CAV_237" depart="6447" from="j2tj3" to="j1tj8" />
    <trip id="HDV_238" depart="6482" from="j8tj1" to="j3tj2" />
    <trip id="HDV_239" depart="6483" from="j5tj3" to="j1tj8" />
    <trip id="CAV_240" depart="6594" from="j6tj4" to="j3tj2" />
    <trip id="HDV_241" depart="6647" from="j5tj3" to="j1tj8" />
    <trip id="HDV_242" depart="6665" from="j8tj1" to="j3tj2" />
    <trip id="CAV_243" depart="6669" from="j2tj3" to="j4tj6" />
    <trip id="HDV_244" depart="6674" from="j8tj1" to="j3tj2" />
    <trip id="HDV_245" depart="6684" from="j2tj3" to="j1tj8" />
    <trip id="CAV_246" depart="6694" from="j8tj1" to="j3tj2" />
    <trip id="HDV_247" depart="6735" from="j8tj1" to="j3tj5" />
    <trip id="HDV_248" depart="6766" from="j6tj4" to="j3tj2" />
    <trip id="CAV_249" depart="6812" from="j8tj1" to="j3tj5" />
    <trip id="HDV_250" depart="6818" from="j6tj4" to="j3tj2" />
    <trip id="HDV_251" depart="6820" from="j2tj3" to="j1tj8" />
    <trip id="CAV_252" depart="6825" from="j2tj3" to="j1tj8" />
    <trip id="HDV_253" depart="6841" from="j2tj3" to="j1tj8" />
    <trip id="HDV_254" depart="6854" from="j2tj3" to="j1tj8" />
    <trip id="CAV_255" depart="6872" from="j6tj4" to="j3tj2" />
    <trip id="HDV_256" depart="6903" from="j2tj3" to="j1tj8" />
    <trip id="HDV_257" depart="6904" from="j2tj3" to="j4tj6" />
    <trip id="CAV_258" depart="6933" from="j8tj1" to="j3tj5" />
    <trip id="HDV_259" depart="6938" from="j8tj1" to="j3tj2" />
    <trip id="HDV_260" depart="6982" from="j2tj3" to="j4tj6" />
    <trip id="CAV_261" depart="7017" from="j8tj1" to="j3tj5" />
    <trip id="HDV_262" depart="7020" from="j6tj4" to="j3tj2" />
    <trip id="HDV_263" depart="7054" from="j6tj4" to="j3tj2" />
    <trip id="CAV_264" depart="7073" from="j8tj1" to="j3tj5" />
    <trip id="HDV_265" depart="7082" from="j8tj1" to="j3tj5" />
    <trip id="HDV_266" depart="7104" from="j2tj3" to="j1tj8" />
    <trip id="CAV_267" depart="7113" from="j6tj4" to="j3tj2" />
    <trip id="HDV_268" depart="7119" from="j6tj4" to="j3tj2" />
    <trip id="HDV_269" depart="7127" from="j6tj4" to="j3tj2" />
    <trip id="CAV_270" depart="7133" from="j5tj3" to="j1tj8" />
    <trip id="HDV_271" depart="7198" from="j2tj3" to="j4tj6" />
    <trip id="HDV_272" depart="7215" from="j8tj1" to="j3tj5" />
    <trip id="CAV_273" depart="7235" from="j6tj4" to="j3tj2" />
    <trip id="HDV_274" depart="7237" from="j8tj1" to="j3tj2" />
    <trip id="HDV_275" depart="7263" from="j8tj1" to="j3tj2" />
    <trip id="CAV_276" depart="7265" from="j8tj1" to="j3tj2" />
    <trip id="HDV_277" depart="7356" from="j8tj1" to="j3tj5" />
    <trip id="HDV_278" depart="7358" from="j8tj1" to="j3tj5" />
    <trip id="CAV_279" depart="7363" from="j2tj3" to="j1tj8" />
    <trip id="HDV_280" depart="7374" from="j8tj1" to="j3tj5" />
    <trip id="HDV_281" depart="7383" from="j5tj3" to="j1tj8" />
    <trip id="CAV_282" depart="7394" from="j8tj1" to="j3tj5" />
    <trip id="HDV_283" depart="7465" from="j2tj3" to="j1tj8" />
    <trip id="HDV_284" depart="7483" from="j8tj1" to="j3tj2" />
    <trip id="CAV_285" depart="7486" from="j5tj3" to="j1tj8" />
    <trip id="HDV_286" depart="7529" from="j8tj1" to="j3tj2" />
    <trip id="HDV_287" depart="7546" from="j8tj1" to="j3tj5" />
    <trip id="CAV_288" depart="7556" from="j8tj1" to="j3tj5" />
    <trip id="HDV_289" depart="7571" from="j2tj3" to="j1tj8" />
    <trip id="HDV_290" depart="7592" from="j8tj1" to="j3tj2" />
    <trip id="CAV_291" depart="7669" from="j2tj3" to="j1tj8" />
    <trip id="HDV_292" depart="7684" from="j2tj3" to="j4tj6" />
    <trip id="HDV_293" depart="7734" from="j8tj1" to="j3tj5" />
    <trip id="CAV_294" depart="7745" from="j8tj1" to="j3tj5" />
    <trip id="HDV_295" depart="7751" from="j6tj4" to="j3tj2" />
    <trip id="HDV_296" depart="7755" from="j6tj4" to="j3tj2" />
    <trip id="CAV_297" depart="7757" from="j8tj1" to="j3tj5" />
    <trip id="HDV_298" depart="7758" from="j5tj3" to="j1tj8" />
    <trip id="HDV_299" depart="7779" from="j2tj3" to="j4tj6" />
    <trip id="CAV_300" depart="7798" from="j5tj3" to="j1tj8" />
    <trip id="HDV_301" depart="7840" from="j2tj3" to="j1tj8" />
    <trip id="HDV_302" depart="7875" from="j5tj3" to="j1tj8" />
    <trip id="CAV_303" depart="7879" from="j2tj3" to="j4tj6" />
    <trip id="HDV_304" depart="7910" from="j5tj3" to="j1tj8" />
    <trip id="HDV_305" depart="7945" from="j8tj1" to="j3tj5" />
    <trip id="CAV_306" depart="7962" from="j2tj3" to="j1tj8" />
    <trip id="HDV_307" depart="8033" from="j5tj3" to="j1tj8" />
    <trip id="HDV_308" depart="8054" from="j8tj1" to="j3tj5" />
    <trip id="CAV_309" depart="8061" from="j2tj3" to="j1tj8" />
    <trip id="HDV_310" depart="8068" from="j2tj3" to="j4tj6" />
    <trip id="HDV_311" depart="8120" from="j2tj3" to="j4tj6" />
    <trip id="CAV_312" depart="8203" from="j8tj1" to="j3tj5" />
    <trip id="HDV_313" depart="8204" from="j2tj3" to="j1tj8" />
    <trip id="HDV_314" depart="8299" from="j2tj3" to="j4tj6" />
    <trip id="CAV_315" depart="8313" from="j8tj1" to="j3tj2" />
    <trip id="HDV_316" depart="8314" from="j8tj1" to="j3tj2" />
    <trip id="HDV_317" depart="8384" from="j2tj3" to="j1tj8" />
    <trip id="CAV_318" depart="8402" from="j2tj3" to="j4tj6" />
    <trip id="HDV_319" depart="8429" from="j8tj1" to="j3tj5" />
    <trip id="HDV_320" depart="8473" from="j6tj4" to="j3tj2" />
    <trip id="CAV_321" depart="8486" from="j8tj1" to="j3tj2" />
    <trip id="HDV_322" depart="8488" from="j8tj1" to="j3tj2" />
    <trip id="HDV_323" depart="8544" from="j2tj3" to="j4tj6" />
    <trip id="CAV_324" depart="8546" from="j2tj3" to="j4tj6" />
    <trip id="HDV_325" depart="8616" from="j2tj3" to="j4tj6" />
    <trip id="HDV_326" depart="8635" from="j8tj1" to="j3tj2" />
    <trip id="CAV_327" depart="8639" from="j2tj3" to="j1tj8" />
    <trip id="HDV_328" depart="8701" from="j5tj3" to="j1tj8" />
    <trip id="HDV_329" depart="8713" from="j5tj3" to="j1tj8" />
    <trip id="CAV_330" depart="8790" from="j2tj3" to="j1tj8" />
    <trip id="HDV_331" depart="8853" from="j5tj3" to="j1tj8" />
    <trip id="HDV_332" depart="8859" from="j2tj3" to="j1tj8" />
    <trip id="CAV_333" depart="8893" from="j5tj3" to="j1tj8" />
    <trip id="HDV_334" depart="8899" from="j2tj3" to="j4tj6" />
    <trip id="HDV_335" depart="8991" from="j5tj3" to="j1tj8" />
    <trip id="CAV_336" depart="9020" from="j6tj4" to="j3tj2" />
    <trip id="HDV_337" depart="9025" from="j8tj1" to="j3tj5" />
    <trip id="HDV_338" depart="9057" from="j8tj1" to="j3tj5" />
    <trip id="CAV_339" depart="9064" from="j2tj3" to="j4tj6" />
    <trip id="HDV_340" depart="9106" from="j2tj3" to="j4tj6" />
    <trip id="HDV_341" depart="9239" from="j8tj1" to="j3tj2" />
    <trip id="CAV_342" depart="9321" from="j8tj1" to="j3tj2" />
    <trip id="HDV_343" depart="9322" from="j5tj3" to="j1tj8" />
    <trip id="HDV_344" depart="9350" from="j8tj1" to="j3tj2" />
    <trip id="CAV_345" depart="9378" from="j8tj1" to="j3tj2" />
    <trip id="HDV_346" depart="9389" from="j2tj3" to="j1tj8" />
    <trip id="HDV_347" depart="9425" from="j6tj4" to="j3tj2" />
    <trip id="CAV_348" depart="9543" from="j6tj4" to="j3tj2" />
    <trip id="HDV_349" depart="9565" from="j8tj1" to="j3tj2" />
    <trip id="HDV_350" depart="9567" from="j2tj3" to="j4tj6" />
    <trip id="CAV_351" depart="9614" from="j6tj4" to="j3tj2" />
    <trip id="HDV_352" depart="9630" from="j6tj4" to="j3tj2" />
    <trip id="HDV_353" depart="9748" from="j5tj3" to="j1tj8" />
    <trip id="CAV_354" depart="9755" from="j6tj4" to="j3tj2" />
    <trip id="HDV_355" depart="9764" from="j6tj4" to="j3tj2" />
    <trip id="HDV_356" depart="9769" from="j8tj1" to="j3tj2" />
    <trip id="CAV_357" depart="9828" from="j6tj4" to="j3tj2" />
    <trip id="HDV_358" depart="9886" from="j8tj1" to="j3tj5" />
    <trip id="HDV_359" depart="9894" from="j2tj3" to="j4tj6" />
    <trip id="CAV_360" depart="9902" from="j6tj4" to="j3tj2" />
    <trip id="HDV_361" depart="9904" from="j8tj1" to="j3tj2" />
    <trip id="HDV_362" depart="9912" from="j2tj3" to="j1tj8" />
    <trip id="CAV_363" depart="9913" from="j8tj1" to="j3tj2" />
    <trip id="HDV_364" depart="9919" from="j2tj3" to="j1tj8" />
    <trip id="HDV_365" depart="10035" from="j8tj1" to="j3tj2" />
    <trip id="CAV_366" depart="10047" from="j8tj1" to="j3tj2" />
    <trip id="HDV_367" depart="10100" from="j8tj1" to="j3tj5" />
    <trip id="HDV_368" depart="10279" from="j2tj3" to="j4tj6" />
    <trip id="CAV_369" depart="10283" from="j2tj3" to="j4tj6" />
    <trip id="HDV_370" depart="10299" from="j5tj3" to="j1tj8" />
    <trip id="HDV_371" depart="10448" from="j5tj3" to="j1tj8" />
    <trip id="CAV_372" depart="10495" from="j2tj3" to="j1tj8" />
    <trip id="HDV_373" depart="10576" from="j8tj1" to="j3tj5" />
    <trip id="HDV_374" depart="10722" from="j2tj3" to="j1tj8" />
    <trip id="CAV_375" depart="10726" from="j8tj1" to="j3tj2" />
    <trip id="HDV_376" depart="10769" from="j8tj1" to="j3tj5" />
    <trip id="HDV_377" depart="10800" from="j2tj3" to="j1tj8" />
    <trip id="CAV_378" depart="10800" from="j5tj3" to="j1tj8" />
    <trip id="HDV_379" depart="10800" from="j5tj3" to="j1tj8" />
    <trip id="HDV_380" depart="10800" from="j8tj1" to="j3tj5" />
    <trip id="CAV_381" depart="10800" from="j5tj3" to="j1tj8" />
    <trip id="HDV_382" depart="10800" from="j2tj3" to="j4tj6" />
    <trip id="HDV_383" depart="10800" from="j8tj1" to="j3tj2" />
    <trip id="CAV_384" depart="10800" from="j2tj3" to="j1tj8" />
    <trip id="HDV_385" depart="10800" from="j8tj1" to="j3tj2" />
    <trip id="HDV_386" depart="10800" from="j2tj3" to="j1tj8" />
    <trip id="CAV_387" depart="10800" from="j2tj3" to="j1tj8" />
    <trip id="HDV_388" depart="10800" from="j8tj1" to="j3tj5" />
    <trip id="HDV_389" depart="10800" from="j8tj1" to="j3tj5" />
    <trip id="CAV_390" depart="10800" from="j5tj3" to="j1tj8" />
    <trip id="HDV_391" depart="10800" from="j5tj3" to="j1tj8" />
    <trip id="HDV_392" depart="10800" from="j5tj3" to="j1tj8" />
    <trip id="CAV_393" depart="10800" from="j8tj1" to="j3tj2" />
    <trip id="HDV_394" depart="10800" from="j6tj4" to="j3tj2" />
    <trip id="HDV_395" depart="10800" from="j8tj1" to="j3tj5" />
    <trip id="CAV_396" depart="10800" from="j5tj3" to="j1tj8" />
    <trip id="HDV_397" depart="10800" from="j6tj4" to="j3tj2" />
    <trip id="HDV_398" depart="10800" from="j6tj4" to="j3tj2" />
    <trip id="CAV_399" depart="10800" from="j2tj3" to="j4tj6" />
</routes>
