<routes>
<vTypeDistribution id="typedist1">
    <vType id="CAV" length="4" />
    <vType id="HDV" length="4" />
</vTypeDistribution>
    <trip id="CAV_0" depart="7" from="j8tj1" to="j3tj5" type="CAV"/>
    <trip id="HDV_1" depart="25" from="j8tj1" to="j3tj5" type="HDV"/>
    <trip id="HDV_2" depart="30" from="j2tj3" to="j1tj8" type="HDV"/>
    <trip id="CAV_3" depart="44" from="j2tj3" to="j1tj8" type="CAV"/>
    <trip id="HDV_4" depart="58" from="j8tj1" to="j3tj5" type="HDV"/>
    <trip id="HDV_5" depart="69" from="j6tj4" to="j3tj2" type="HDV"/>
    <trip id="CAV_6" depart="74" from="j5tj3" to="j1tj8" type="CAV"/>
    <trip id="HDV_7" depart="89" from="j5tj3" to="j1tj8" type="HDV"/>
    <trip id="HDV_8" depart="107" from="j6tj4" to="j3tj2" type="HDV"/>
    <trip id="CAV_9" depart="129" from="j8tj1" to="j3tj5" type="CAV"/>
    <trip id="HDV_10" depart="165" from="j2tj3" to="j1tj8" type="HDV"/>
    <trip id="HDV_11" depart="176" from="j6tj4" to="j3tj2" type="HDV"/>
    <trip id="CAV_12" depart="205" from="j2tj3" to="j1tj8" type="CAV"/>
    <trip id="HDV_13" depart="226" from="j2tj3" to="j1tj8" type="HDV"/>
    <trip id="HDV_14" depart="243" from="j8tj1" to="j3tj5" type="HDV"/>
    <trip id="CAV_15" depart="260" from="j2tj3" to="j1tj8" type="CAV"/>
    <trip id="HDV_16" depart="266" from="j2tj3" to="j1tj8" type="HDV"/>
    <trip id="HDV_17" depart="348" from="j8tj1" to="j3tj2" type="HDV"/>
    <trip id="CAV_18" depart="368" from="j5tj3" to="j1tj8" type="CAV"/>
    <trip id="HDV_19" depart="394" from="j2tj3" to="j4tj6" type="HDV"/>
    <trip id="HDV_20" depart="400" from="j5tj3" to="j1tj8" type="HDV"/>
    <trip id="CAV_21" depart="458" from="j8tj1" to="j3tj2" type="CAV"/>
    <trip id="HDV_22" depart="462" from="j8tj1" to="j3tj5" type="HDV"/>
    <trip id="HDV_23" depart="478" from="j8tj1" to="j3tj2" type="HDV"/>
    <trip id="CAV_24" depart="479" from="j2tj3" to="j4tj6" type="CAV"/>
    <trip id="HDV_25" depart="485" from="j8tj1" to="j3tj2" type="HDV"/>
    <trip id="HDV_26" depart="486" from="j5tj3" to="j1tj8" type="HDV"/>
    <trip id="CAV_27" depart="490" from="j2tj3" to="j1tj8" type="CAV"/>
    <trip id="HDV_28" depart="511" from="j2tj3" to="j1tj8" type="HDV"/>
    <trip id="HDV_29" depart="524" from="j2tj3" to="j1tj8" type="HDV"/>
    <trip id="CAV_30" depart="561" from="j2tj3" to="j4tj6" type="CAV"/>
    <trip id="HDV_31" depart="595" from="j2tj3" to="j1tj8" type="HDV"/>
    <trip id="HDV_32" depart="600" from="j5tj3" to="j1tj8" type="HDV"/>
    <trip id="CAV_33" depart="607" from="j8tj1" to="j3tj5" type="CAV"/>
    <trip id="HDV_34" depart="609" from="j8tj1" to="j3tj2" type="HDV"/>
    <trip id="HDV_35" depart="642" from="j5tj3" to="j1tj8" type="HDV"/>
    <trip id="CAV_36" depart="668" from="j2tj3" to="j1tj8" type="CAV"/>
    <trip id="HDV_37" depart="669" from="j2tj3" to="j1tj8" type="HDV"/>
    <trip id="HDV_38" depart="719" from="j2tj3" to="j1tj8" type="HDV"/>
    <trip id="CAV_39" depart="723" from="j8tj1" to="j3tj2" type="CAV"/>
    <trip id="HDV_40" depart="759" from="j8tj1" to="j3tj5" type="HDV"/>
    <trip id="HDV_41" depart="769" from="j6tj4" to="j3tj2" type="HDV"/>
    <trip id="CAV_42" depart="771" from="j8tj1" to="j3tj2" type="CAV"/>
    <trip id="HDV_43" depart="771" from="j8tj1" to="j3tj5" type="HDV"/>
    <trip id="HDV_44" depart="799" from="j6tj4" to="j3tj2" type="HDV"/>
    <trip id="CAV_45" depart="811" from="j8tj1" to="j3tj2" type="CAV"/>
    <trip id="HDV_46" depart="812" from="j8tj1" to="j3tj5" type="HDV"/>
    <trip id="HDV_47" depart="844" from="j5tj3" to="j1tj8" type="HDV"/>
    <trip id="CAV_48" depart="848" from="j2tj3" to="j1tj8" type="CAV"/>
    <trip id="HDV_49" depart="878" from="j8tj1" to="j3tj5" type="HDV"/>
    <trip id="HDV_50" depart="879" from="j6tj4" to="j3tj2" type="HDV"/>
    <trip id="CAV_51" depart="914" from="j8tj1" to="j3tj5" type="CAV"/>
    <trip id="HDV_52" depart="922" from="j8tj1" to="j3tj2" type="HDV"/>
    <trip id="HDV_53" depart="936" from="j8tj1" to="j3tj2" type="HDV"/>
    <trip id="CAV_54" depart="952" from="j5tj3" to="j1tj8" type="CAV"/>
    <trip id="HDV_55" depart="963" from="j2tj3" to="j1tj8" type="HDV"/>
    <trip id="HDV_56" depart="972" from="j6tj4" to="j3tj2" type="HDV"/>
    <trip id="CAV_57" depart="982" from="j5tj3" to="j1tj8" type="CAV"/>
    <trip id="HDV_58" depart="1017" from="j2tj3" to="j1tj8" type="HDV"/>
    <trip id="HDV_59" depart="1045" from="j8tj1" to="j3tj2" type="HDV"/>
    <trip id="CAV_60" depart="1090" from="j5tj3" to="j1tj8" type="CAV"/>
    <trip id="HDV_61" depart="1111" from="j8tj1" to="j3tj5" type="HDV"/>
    <trip id="HDV_62" depart="1112" from="j2tj3" to="j1tj8" type="HDV"/>
    <trip id="CAV_63" depart="1135" from="j2tj3" to="j4tj6" type="CAV"/>
    <trip id="HDV_64" depart="1155" from="j2tj3" to="j1tj8" type="HDV"/>
    <trip id="HDV_65" depart="1169" from="j5tj3" to="j1tj8" type="HDV"/>
    <trip id="CAV_66" depart="1175" from="j5tj3" to="j1tj8" type="CAV"/>
    <trip id="HDV_67" depart="1179" from="j5tj3" to="j1tj8" type="HDV"/>
    <trip id="HDV_68" depart="1197" from="j5tj3" to="j1tj8" type="HDV"/>
    <trip id="CAV_69" depart="1226" from="j8tj1" to="j3tj2" type="CAV"/>
    <trip id="HDV_70" depart="1235" from="j2tj3" to="j1tj8" type="HDV"/>
    <trip id="HDV_71" depart="1244" from="j8tj1" to="j3tj5" type="HDV"/>
    <trip id="CAV_72" depart="1246" from="j2tj3" to="j4tj6" type="CAV"/>
    <trip id="HDV_73" depart="1283" from="j2tj3" to="j1tj8" type="HDV"/>
    <trip id="HDV_74" depart="1287" from="j8tj1" to="j3tj5" type="HDV"/>
    <trip id="CAV_75" depart="1292" from="j8tj1" to="j3tj2" type="CAV"/>
    <trip id="HDV_76" depart="1293" from="j5tj3" to="j1tj8" type="HDV"/>
    <trip id="HDV_77" depart="1306" from="j2tj3" to="j4tj6" type="HDV"/>
    <trip id="CAV_78" depart="1329" from="j6tj4" to="j3tj2" type="CAV"/>
    <trip id="HDV_79" depart="1384" from="j6tj4" to="j3tj2" type="HDV"/>
    <trip id="HDV_80" depart="1398" from="j2tj3" to="j1tj8" type="HDV"/>
    <trip id="CAV_81" depart="1405" from="j8tj1" to="j3tj5" type="CAV"/>
    <trip id="HDV_82" depart="1418" from="j8tj1" to="j3tj2" type="HDV"/>
    <trip id="HDV_83" depart="1420" from="j8tj1" to="j3tj2" type="HDV"/>
    <trip id="CAV_84" depart="1427" from="j6tj4" to="j3tj2" type="CAV"/>
    <trip id="HDV_85" depart="1459" from="j8tj1" to="j3tj5" type="HDV"/>
    <trip id="HDV_86" depart="1475" from="j8tj1" to="j3tj5" type="HDV"/>
    <trip id="CAV_87" depart="1492" from="j2tj3" to="j1tj8" type="CAV"/>
    <trip id="HDV_88" depart="1494" from="j2tj3" to="j1tj8" type="HDV"/>
    <trip id="HDV_89" depart="1500" from="j8tj1" to="j3tj2" type="HDV"/>
    <trip id="CAV_90" depart="1506" from="j5tj3" to="j1tj8" type="CAV"/>
    <trip id="HDV_91" depart="1513" from="j2tj3" to="j1tj8" type="HDV"/>
    <trip id="HDV_92" depart="1524" from="j2tj3" to="j4tj6" type="HDV"/>
    <trip id="CAV_93" depart="1537" from="j5tj3" to="j1tj8" type="CAV"/>
    <trip id="HDV_94" depart="1547" from="j8tj1" to="j3tj5" type="HDV"/>
    <trip id="HDV_95" depart="1552" from="j5tj3" to="j1tj8" type="HDV"/>
    <trip id="CAV_96" depart="1588" from="j2tj3" to="j1tj8" type="CAV"/>
    <trip id="HDV_97" depart="1604" from="j2tj3" to="j1tj8" type="HDV"/>
    <trip id="HDV_98" depart="1626" from="j6tj4" to="j3tj2" type="HDV"/>
    <trip id="CAV_99" depart="1643" from="j6tj4" to="j3tj2" type="CAV"/>
    <trip id="HDV_100" depart="1658" from="j5tj3" to="j1tj8" type="HDV"/>
    <trip id="HDV_101" depart="1669" from="j8tj1" to="j3tj5" type="HDV"/>
    <trip id="CAV_102" depart="1684" from="j2tj3" to="j1tj8" type="CAV"/>
    <trip id="HDV_103" depart="1701" from="j8tj1" to="j3tj2" type="HDV"/>
    <trip id="HDV_104" depart="1702" from="j8tj1" to="j3tj5" type="HDV"/>
    <trip id="CAV_105" depart="1765" from="j6tj4" to="j3tj2" type="CAV"/>
    <trip id="HDV_106" depart="1770" from="j2tj3" to="j1tj8" type="HDV"/>
    <trip id="HDV_107" depart="1779" from="j6tj4" to="j3tj2" type="HDV"/>
    <trip id="CAV_108" depart="1807" from="j8tj1" to="j3tj2" type="CAV"/>
    <trip id="HDV_109" depart="1812" from="j2tj3" to="j1tj8" type="HDV"/>
    <trip id="HDV_110" depart="1813" from="j6tj4" to="j3tj2" type="HDV"/>
    <trip id="CAV_111" depart="1817" from="j5tj3" to="j1tj8" type="CAV"/>
    <trip id="HDV_112" depart="1843" from="j5tj3" to="j1tj8" type="HDV"/>
    <trip id="HDV_113" depart="1859" from="j6tj4" to="j3tj2" type="HDV"/>
    <trip id="CAV_114" depart="1862" from="j2tj3" to="j4tj6" type="CAV"/>
    <trip id="HDV_115" depart="1874" from="j6tj4" to="j3tj2" type="HDV"/>
    <trip id="HDV_116" depart="1882" from="j8tj1" to="j3tj2" type="HDV"/>
    <trip id="CAV_117" depart="1911" from="j2tj3" to="j4tj6" type="CAV"/>
    <trip id="HDV_118" depart="1918" from="j6tj4" to="j3tj2" type="HDV"/>
    <trip id="HDV_119" depart="1919" from="j6tj4" to="j3tj2" type="HDV"/>
    <trip id="CAV_120" depart="1938" from="j5tj3" to="j1tj8" type="CAV"/>
    <trip id="HDV_121" depart="1951" from="j2tj3" to="j4tj6" type="HDV"/>
    <trip id="HDV_122" depart="1973" from="j5tj3" to="j1tj8" type="HDV"/>
    <trip id="CAV_123" depart="1977" from="j8tj1" to="j3tj2" type="CAV"/>
    <trip id="HDV_124" depart="1979" from="j6tj4" to="j3tj2" type="HDV"/>
    <trip id="HDV_125" depart="1999" from="j5tj3" to="j1tj8" type="HDV"/>
    <trip id="CAV_126" depart="2017" from="j8tj1" to="j3tj5" type="CAV"/>
    <trip id="HDV_127" depart="2021" from="j2tj3" to="j1tj8" type="HDV"/>
    <trip id="HDV_128" depart="2048" from="j5tj3" to="j1tj8" type="HDV"/>
    <trip id="CAV_129" depart="2057" from="j2tj3" to="j1tj8" type="CAV"/>
    <trip id="HDV_130" depart="2073" from="j5tj3" to="j1tj8" type="HDV"/>
    <trip id="HDV_131" depart="2074" from="j6tj4" to="j3tj2" type="HDV"/>
    <trip id="CAV_132" depart="2076" from="j8tj1" to="j3tj2" type="CAV"/>
    <trip id="HDV_133" depart="2085" from="j2tj3" to="j1tj8" type="HDV"/>
    <trip id="HDV_134" depart="2097" from="j6tj4" to="j3tj2" type="HDV"/>
    <trip id="CAV_135" depart="2100" from="j8tj1" to="j3tj5" type="CAV"/>
    <trip id="HDV_136" depart="2109" from="j2tj3" to="j4tj6" type="HDV"/>
    <trip id="HDV_137" depart="2114" from="j2tj3" to="j4tj6" type="HDV"/>
    <trip id="CAV_138" depart="2118" from="j2tj3" to="j1tj8" type="CAV"/>
    <trip id="HDV_139" depart="2121" from="j2tj3" to="j1tj8" type="HDV"/>
    <trip id="HDV_140" depart="2132" from="j8tj1" to="j3tj5" type="HDV"/>
    <trip id="CAV_141" depart="2142" from="j8tj1" to="j3tj2" type="CAV"/>
    <trip id="HDV_142" depart="2153" from="j2tj3" to="j1tj8" type="HDV"/>
    <trip id="HDV_143" depart="2167" from="j6tj4" to="j3tj2" type="HDV"/>
    <trip id="CAV_144" depart="2180" from="j6tj4" to="j3tj2" type="CAV"/>
    <trip id="HDV_145" depart="2194" from="j2tj3" to="j1tj8" type="HDV"/>
    <trip id="HDV_146" depart="2207" from="j6tj4" to="j3tj2" type="HDV"/>
    <trip id="CAV_147" depart="2232" from="j8tj1" to="j3tj5" type="CAV"/>
    <trip id="HDV_148" depart="2260" from="j2tj3" to="j4tj6" type="HDV"/>
    <trip id="HDV_149" depart="2315" from="j2tj3" to="j1tj8" type="HDV"/>
    <trip id="CAV_150" depart="2326" from="j8tj1" to="j3tj5" type="CAV"/>
    <trip id="HDV_151" depart="2330" from="j8tj1" to="j3tj2" type="HDV"/>
    <trip id="HDV_152" depart="2359" from="j8tj1" to="j3tj5" type="HDV"/>
    <trip id="CAV_153" depart="2370" from="j8tj1" to="j3tj2" type="CAV"/>
    <trip id="HDV_154" depart="2371" from="j2tj3" to="j4tj6" type="HDV"/>
    <trip id="HDV_155" depart="2375" from="j6tj4" to="j3tj2" type="HDV"/>
    <trip id="CAV_156" depart="2377" from="j6tj4" to="j3tj2" type="CAV"/>
    <trip id="HDV_157" depart="2379" from="j6tj4" to="j3tj2" type="HDV"/>
    <trip id="HDV_158" depart="2383" from="j6tj4" to="j3tj2" type="HDV"/>
    <trip id="CAV_159" depart="2388" from="j2tj3" to="j1tj8" type="CAV"/>
    <trip id="HDV_160" depart="2433" from="j6tj4" to="j3tj2" type="HDV"/>
    <trip id="HDV_161" depart="2438" from="j6tj4" to="j3tj2" type="HDV"/>
    <trip id="CAV_162" depart="2448" from="j8tj1" to="j3tj5" type="CAV"/>
    <trip id="HDV_163" depart="2461" from="j8tj1" to="j3tj2" type="HDV"/>
    <trip id="HDV_164" depart="2471" from="j8tj1" to="j3tj2" type="HDV"/>
    <trip id="CAV_165" depart="2492" from="j2tj3" to="j1tj8" type="CAV"/>
    <trip id="HDV_166" depart="2518" from="j2tj3" to="j4tj6" type="HDV"/>
    <trip id="HDV_167" depart="2539" from="j8tj1" to="j3tj2" type="HDV"/>
    <trip id="CAV_168" depart="2539" from="j2tj3" to="j4tj6" type="CAV"/>
    <trip id="HDV_169" depart="2542" from="j2tj3" to="j4tj6" type="HDV"/>
    <trip id="HDV_170" depart="2549" from="j5tj3" to="j1tj8" type="HDV"/>
    <trip id="CAV_171" depart="2614" from="j5tj3" to="j1tj8" type="CAV"/>
    <trip id="HDV_172" depart="2619" from="j8tj1" to="j3tj2" type="HDV"/>
    <trip id="HDV_173" depart="2644" from="j6tj4" to="j3tj2" type="HDV"/>
    <trip id="CAV_174" depart="2671" from="j5tj3" to="j1tj8" type="CAV"/>
    <trip id="HDV_175" depart="2694" from="j5tj3" to="j1tj8" type="HDV"/>
    <trip id="HDV_176" depart="2705" from="j2tj3" to="j1tj8" type="HDV"/>
    <trip id="CAV_177" depart="2705" from="j8tj1" to="j3tj2" type="CAV"/>
    <trip id="HDV_178" depart="2752" from="j8tj1" to="j3tj5" type="HDV"/>
    <trip id="HDV_179" depart="2756" from="j8tj1" to="j3tj5" type="HDV"/>
    <trip id="CAV_180" depart="2760" from="j8tj1" to="j3tj2" type="CAV"/>
    <trip id="HDV_181" depart="2772" from="j2tj3" to="j4tj6" type="HDV"/>
    <trip id="HDV_182" depart="2785" from="j2tj3" to="j1tj8" type="HDV"/>
    <trip id="CAV_183" depart="2785" from="j8tj1" to="j3tj5" type="CAV"/>
    <trip id="HDV_184" depart="2819" from="j8tj1" to="j3tj2" type="HDV"/>
    <trip id="HDV_185" depart="2829" from="j2tj3" to="j4tj6" type="HDV"/>
    <trip id="CAV_186" depart="2836" from="j8tj1" to="j3tj2" type="CAV"/>
    <trip id="HDV_187" depart="2838" from="j8tj1" to="j3tj5" type="HDV"/>
    <trip id="HDV_188" depart="2841" from="j8tj1" to="j3tj2" type="HDV"/>
    <trip id="CAV_189" depart="2843" from="j5tj3" to="j1tj8" type="CAV"/>
    <trip id="HDV_190" depart="2850" from="j6tj4" to="j3tj2" type="HDV"/>
    <trip id="HDV_191" depart="2887" from="j5tj3" to="j1tj8" type="HDV"/>
    <trip id="CAV_192" depart="2896" from="j6tj4" to="j3tj2" type="CAV"/>
    <trip id="HDV_193" depart="2928" from="j8tj1" to="j3tj5" type="HDV"/>
    <trip id="HDV_194" depart="2937" from="j5tj3" to="j1tj8" type="HDV"/>
    <trip id="CAV_195" depart="2966" from="j8tj1" to="j3tj2" type="CAV"/>
    <trip id="HDV_196" depart="2981" from="j8tj1" to="j3tj5" type="HDV"/>
    <trip id="HDV_197" depart="2981" from="j8tj1" to="j3tj5" type="HDV"/>
    <trip id="CAV_198" depart="2985" from="j6tj4" to="j3tj2" type="CAV"/>
    <trip id="HDV_199" depart="3002" from="j8tj1" to="j3tj2" type="HDV"/>
    <trip id="HDV_200" depart="3011" from="j6tj4" to="j3tj2" type="HDV"/>
    <trip id="CAV_201" depart="3031" from="j2tj3" to="j1tj8" type="CAV"/>
    <trip id="HDV_202" depart="3034" from="j8tj1" to="j3tj5" type="HDV"/>
    <trip id="HDV_203" depart="3044" from="j2tj3" to="j4tj6" type="HDV"/>
    <trip id="CAV_204" depart="3053" from="j2tj3" to="j1tj8" type="CAV"/>
    <trip id="HDV_205" depart="3060" from="j8tj1" to="j3tj2" type="HDV"/>
    <trip id="HDV_206" depart="3102" from="j6tj4" to="j3tj2" type="HDV"/>
    <trip id="CAV_207" depart="3175" from="j8tj1" to="j3tj5" type="CAV"/>
    <trip id="HDV_208" depart="3188" from="j8tj1" to="j3tj2" type="HDV"/>
    <trip id="HDV_209" depart="3189" from="j8tj1" to="j3tj5" type="HDV"/>
    <trip id="CAV_210" depart="3208" from="j2tj3" to="j1tj8" type="CAV"/>
    <trip id="HDV_211" depart="3219" from="j8tj1" to="j3tj5" type="HDV"/>
    <trip id="HDV_212" depart="3219" from="j6tj4" to="j3tj2" type="HDV"/>
    <trip id="CAV_213" depart="3225" from="j6tj4" to="j3tj2" type="CAV"/>
    <trip id="HDV_214" depart="3240" from="j2tj3" to="j1tj8" type="HDV"/>
    <trip id="HDV_215" depart="3263" from="j8tj1" to="j3tj5" type="HDV"/>
    <trip id="CAV_216" depart="3265" from="j2tj3" to="j1tj8" type="CAV"/>
    <trip id="HDV_217" depart="3298" from="j2tj3" to="j4tj6" type="HDV"/>
    <trip id="HDV_218" depart="3299" from="j2tj3" to="j4tj6" type="HDV"/>
    <trip id="CAV_219" depart="3352" from="j5tj3" to="j1tj8" type="CAV"/>
    <trip id="HDV_220" depart="3371" from="j2tj3" to="j1tj8" type="HDV"/>
    <trip id="HDV_221" depart="3396" from="j6tj4" to="j3tj2" type="HDV"/>
    <trip id="CAV_222" depart="3413" from="j8tj1" to="j3tj2" type="CAV"/>
    <trip id="HDV_223" depart="3418" from="j6tj4" to="j3tj2" type="HDV"/>
    <trip id="HDV_224" depart="3440" from="j8tj1" to="j3tj5" type="HDV"/>
    <trip id="CAV_225" depart="3481" from="j6tj4" to="j3tj2" type="CAV"/>
    <trip id="HDV_226" depart="3484" from="j8tj1" to="j3tj2" type="HDV"/>
    <trip id="HDV_227" depart="3518" from="j6tj4" to="j3tj2" type="HDV"/>
    <trip id="CAV_228" depart="3546" from="j5tj3" to="j1tj8" type="CAV"/>
    <trip id="HDV_229" depart="3561" from="j5tj3" to="j1tj8" type="HDV"/>
    <trip id="HDV_230" depart="3574" from="j2tj3" to="j4tj6" type="HDV"/>
    <trip id="CAV_231" depart="3582" from="j2tj3" to="j1tj8" type="CAV"/>
    <trip id="HDV_232" depart="3584" from="j6tj4" to="j3tj2" type="HDV"/>
    <trip id="HDV_233" depart="3604" from="j2tj3" to="j4tj6" type="HDV"/>
    <trip id="CAV_234" depart="3621" from="j6tj4" to="j3tj2" type="CAV"/>
    <trip id="HDV_235" depart="3633" from="j8tj1" to="j3tj2" type="HDV"/>
    <trip id="HDV_236" depart="3641" from="j5tj3" to="j1tj8" type="HDV"/>
    <trip id="CAV_237" depart="3645" from="j2tj3" to="j1tj8" type="CAV"/>
    <trip id="HDV_238" depart="3666" from="j2tj3" to="j4tj6" type="HDV"/>
    <trip id="HDV_239" depart="3673" from="j2tj3" to="j1tj8" type="HDV"/>
    <trip id="CAV_240" depart="3675" from="j5tj3" to="j1tj8" type="CAV"/>
    <trip id="HDV_241" depart="3686" from="j6tj4" to="j3tj2" type="HDV"/>
    <trip id="HDV_242" depart="3686" from="j2tj3" to="j1tj8" type="HDV"/>
    <trip id="CAV_243" depart="3686" from="j8tj1" to="j3tj2" type="CAV"/>
    <trip id="HDV_244" depart="3702" from="j2tj3" to="j4tj6" type="HDV"/>
    <trip id="HDV_245" depart="3706" from="j8tj1" to="j3tj5" type="HDV"/>
    <trip id="CAV_246" depart="3770" from="j2tj3" to="j1tj8" type="CAV"/>
    <trip id="HDV_247" depart="3772" from="j2tj3" to="j1tj8" type="HDV"/>
    <trip id="HDV_248" depart="3800" from="j2tj3" to="j1tj8" type="HDV"/>
    <trip id="CAV_249" depart="3812" from="j6tj4" to="j3tj2" type="CAV"/>
    <trip id="HDV_250" depart="3816" from="j6tj4" to="j3tj2" type="HDV"/>
    <trip id="HDV_251" depart="3833" from="j6tj4" to="j3tj2" type="HDV"/>
    <trip id="CAV_252" depart="3846" from="j5tj3" to="j1tj8" type="CAV"/>
    <trip id="HDV_253" depart="3858" from="j8tj1" to="j3tj5" type="HDV"/>
    <trip id="HDV_254" depart="3859" from="j2tj3" to="j4tj6" type="HDV"/>
    <trip id="CAV_255" depart="3882" from="j6tj4" to="j3tj2" type="CAV"/>
    <trip id="HDV_256" depart="3928" from="j8tj1" to="j3tj5" type="HDV"/>
    <trip id="HDV_257" depart="3929" from="j5tj3" to="j1tj8" type="HDV"/>
    <trip id="CAV_258" depart="3954" from="j6tj4" to="j3tj2" type="CAV"/>
    <trip id="HDV_259" depart="3961" from="j8tj1" to="j3tj2" type="HDV"/>
    <trip id="HDV_260" depart="3963" from="j8tj1" to="j3tj5" type="HDV"/>
    <trip id="CAV_261" depart="3973" from="j6tj4" to="j3tj2" type="CAV"/>
    <trip id="HDV_262" depart="3974" from="j6tj4" to="j3tj2" type="HDV"/>
    <trip id="HDV_263" depart="3974" from="j5tj3" to="j1tj8" type="HDV"/>
    <trip id="CAV_264" depart="3974" from="j6tj4" to="j3tj2" type="CAV"/>
    <trip id="HDV_265" depart="3980" from="j5tj3" to="j1tj8" type="HDV"/>
    <trip id="HDV_266" depart="3983" from="j8tj1" to="j3tj5" type="HDV"/>
    <trip id="CAV_267" depart="3995" from="j2tj3" to="j1tj8" type="CAV"/>
    <trip id="HDV_268" depart="4000" from="j8tj1" to="j3tj5" type="HDV"/>
    <trip id="HDV_269" depart="4001" from="j5tj3" to="j1tj8" type="HDV"/>
    <trip id="CAV_270" depart="4005" from="j6tj4" to="j3tj2" type="CAV"/>
    <trip id="HDV_271" depart="4033" from="j2tj3" to="j4tj6" type="HDV"/>
    <trip id="HDV_272" depart="4039" from="j6tj4" to="j3tj2" type="HDV"/>
    <trip id="CAV_273" depart="4078" from="j5tj3" to="j1tj8" type="CAV"/>
    <trip id="HDV_274" depart="4083" from="j5tj3" to="j1tj8" type="HDV"/>
    <trip id="HDV_275" depart="4123" from="j8tj1" to="j3tj5" type="HDV"/>
    <trip id="CAV_276" depart="4139" from="j8tj1" to="j3tj2" type="CAV"/>
    <trip id="HDV_277" depart="4152" from="j2tj3" to="j1tj8" type="HDV"/>
    <trip id="HDV_278" depart="4158" from="j2tj3" to="j4tj6" type="HDV"/>
    <trip id="CAV_279" depart="4168" from="j2tj3" to="j1tj8" type="CAV"/>
    <trip id="HDV_280" depart="4180" from="j2tj3" to="j4tj6" type="HDV"/>
    <trip id="HDV_281" depart="4182" from="j2tj3" to="j1tj8" type="HDV"/>
    <trip id="CAV_282" depart="4186" from="j5tj3" to="j1tj8" type="CAV"/>
    <trip id="HDV_283" depart="4197" from="j8tj1" to="j3tj2" type="HDV"/>
    <trip id="HDV_284" depart="4212" from="j2tj3" to="j4tj6" type="HDV"/>
    <trip id="CAV_285" depart="4248" from="j8tj1" to="j3tj2" type="CAV"/>
    <trip id="HDV_286" depart="4286" from="j5tj3" to="j1tj8" type="HDV"/>
    <trip id="HDV_287" depart="4297" from="j2tj3" to="j1tj8" type="HDV"/>
    <trip id="CAV_288" depart="4299" from="j6tj4" to="j3tj2" type="CAV"/>
    <trip id="HDV_289" depart="4310" from="j6tj4" to="j3tj2" type="HDV"/>
    <trip id="HDV_290" depart="4326" from="j8tj1" to="j3tj2" type="HDV"/>
    <trip id="CAV_291" depart="4345" from="j5tj3" to="j1tj8" type="CAV"/>
    <trip id="HDV_292" depart="4355" from="j5tj3" to="j1tj8" type="HDV"/>
    <trip id="HDV_293" depart="4360" from="j2tj3" to="j4tj6" type="HDV"/>
    <trip id="CAV_294" depart="4365" from="j2tj3" to="j4tj6" type="CAV"/>
    <trip id="HDV_295" depart="4376" from="j5tj3" to="j1tj8" type="HDV"/>
    <trip id="HDV_296" depart="4381" from="j8tj1" to="j3tj2" type="HDV"/>
    <trip id="CAV_297" depart="4391" from="j5tj3" to="j1tj8" type="CAV"/>
    <trip id="HDV_298" depart="4392" from="j6tj4" to="j3tj2" type="HDV"/>
    <trip id="HDV_299" depart="4404" from="j2tj3" to="j4tj6" type="HDV"/>
    <trip id="CAV_300" depart="4444" from="j2tj3" to="j4tj6" type="CAV"/>
    <trip id="HDV_301" depart="4457" from="j2tj3" to="j4tj6" type="HDV"/>
    <trip id="HDV_302" depart="4470" from="j2tj3" to="j4tj6" type="HDV"/>
    <trip id="CAV_303" depart="4479" from="j5tj3" to="j1tj8" type="CAV"/>
    <trip id="HDV_304" depart="4481" from="j5tj3" to="j1tj8" type="HDV"/>
    <trip id="HDV_305" depart="4484" from="j6tj4" to="j3tj2" type="HDV"/>
    <trip id="CAV_306" depart="4487" from="j6tj4" to="j3tj2" type="CAV"/>
    <trip id="HDV_307" depart="4491" from="j5tj3" to="j1tj8" type="HDV"/>
    <trip id="HDV_308" depart="4497" from="j5tj3" to="j1tj8" type="HDV"/>
    <trip id="CAV_309" depart="4511" from="j2tj3" to="j1tj8" type="CAV"/>
    <trip id="HDV_310" depart="4521" from="j8tj1" to="j3tj2" type="HDV"/>
    <trip id="HDV_311" depart="4529" from="j8tj1" to="j3tj2" type="HDV"/>
    <trip id="CAV_312" depart="4535" from="j8tj1" to="j3tj2" type="CAV"/>
    <trip id="HDV_313" depart="4558" from="j2tj3" to="j1tj8" type="HDV"/>
    <trip id="HDV_314" depart="4573" from="j6tj4" to="j3tj2" type="HDV"/>
    <trip id="CAV_315" depart="4583" from="j6tj4" to="j3tj2" type="CAV"/>
    <trip id="HDV_316" depart="4595" from="j6tj4" to="j3tj2" type="HDV"/>
    <trip id="HDV_317" depart="4597" from="j8tj1" to="j3tj2" type="HDV"/>
    <trip id="CAV_318" depart="4602" from="j6tj4" to="j3tj2" type="CAV"/>
    <trip id="HDV_319" depart="4626" from="j8tj1" to="j3tj2" type="HDV"/>
    <trip id="HDV_320" depart="4657" from="j8tj1" to="j3tj5" type="HDV"/>
    <trip id="CAV_321" depart="4660" from="j2tj3" to="j4tj6" type="CAV"/>
    <trip id="HDV_322" depart="4665" from="j8tj1" to="j3tj5" type="HDV"/>
    <trip id="HDV_323" depart="4676" from="j8tj1" to="j3tj2" type="HDV"/>
    <trip id="CAV_324" depart="4681" from="j6tj4" to="j3tj2" type="CAV"/>
    <trip id="HDV_325" depart="4695" from="j8tj1" to="j3tj5" type="HDV"/>
    <trip id="HDV_326" depart="4703" from="j5tj3" to="j1tj8" type="HDV"/>
    <trip id="CAV_327" depart="4704" from="j6tj4" to="j3tj2" type="CAV"/>
    <trip id="HDV_328" depart="4706" from="j6tj4" to="j3tj2" type="HDV"/>
    <trip id="HDV_329" depart="4739" from="j8tj1" to="j3tj5" type="HDV"/>
    <trip id="CAV_330" depart="4744" from="j2tj3" to="j4tj6" type="CAV"/>
    <trip id="HDV_331" depart="4745" from="j2tj3" to="j4tj6" type="HDV"/>
    <trip id="HDV_332" depart="4760" from="j2tj3" to="j4tj6" type="HDV"/>
    <trip id="CAV_333" depart="4765" from="j2tj3" to="j4tj6" type="CAV"/>
    <trip id="HDV_334" depart="4785" from="j2tj3" to="j4tj6" type="HDV"/>
    <trip id="HDV_335" depart="4805" from="j8tj1" to="j3tj2" type="HDV"/>
    <trip id="CAV_336" depart="4823" from="j6tj4" to="j3tj2" type="CAV"/>
    <trip id="HDV_337" depart="4831" from="j5tj3" to="j1tj8" type="HDV"/>
    <trip id="HDV_338" depart="4836" from="j6tj4" to="j3tj2" type="HDV"/>
    <trip id="CAV_339" depart="4846" from="j6tj4" to="j3tj2" type="CAV"/>
    <trip id="HDV_340" depart="4865" from="j6tj4" to="j3tj2" type="HDV"/>
    <trip id="HDV_341" depart="4875" from="j5tj3" to="j1tj8" type="HDV"/>
    <trip id="CAV_342" depart="4906" from="j6tj4" to="j3tj2" type="CAV"/>
    <trip id="HDV_343" depart="4918" from="j6tj4" to="j3tj2" type="HDV"/>
    <trip id="HDV_344" depart="4928" from="j2tj3" to="j4tj6" type="HDV"/>
    <trip id="CAV_345" depart="4930" from="j5tj3" to="j1tj8" type="CAV"/>
    <trip id="HDV_346" depart="4943" from="j8tj1" to="j3tj2" type="HDV"/>
    <trip id="HDV_347" depart="4949" from="j5tj3" to="j1tj8" type="HDV"/>
    <trip id="CAV_348" depart="4955" from="j2tj3" to="j4tj6" type="CAV"/>
    <trip id="HDV_349" depart="4977" from="j8tj1" to="j3tj5" type="HDV"/>
    <trip id="HDV_350" depart="4997" from="j8tj1" to="j3tj5" type="HDV"/>
    <trip id="CAV_351" depart="5005" from="j8tj1" to="j3tj5" type="CAV"/>
    <trip id="HDV_352" depart="5027" from="j2tj3" to="j4tj6" type="HDV"/>
    <trip id="HDV_353" depart="5039" from="j2tj3" to="j1tj8" type="HDV"/>
    <trip id="CAV_354" depart="5041" from="j5tj3" to="j1tj8" type="CAV"/>
    <trip id="HDV_355" depart="5044" from="j8tj1" to="j3tj5" type="HDV"/>
    <trip id="HDV_356" depart="5054" from="j2tj3" to="j4tj6" type="HDV"/>
    <trip id="CAV_357" depart="5067" from="j2tj3" to="j1tj8" type="CAV"/>
    <trip id="HDV_358" depart="5070" from="j5tj3" to="j1tj8" type="HDV"/>
    <trip id="HDV_359" depart="5078" from="j6tj4" to="j3tj2" type="HDV"/>
    <trip id="CAV_360" depart="5111" from="j6tj4" to="j3tj2" type="CAV"/>
    <trip id="HDV_361" depart="5131" from="j2tj3" to="j4tj6" type="HDV"/>
    <trip id="HDV_362" depart="5159" from="j6tj4" to="j3tj2" type="HDV"/>
    <trip id="CAV_363" depart="5160" from="j8tj1" to="j3tj2" type="CAV"/>
    <trip id="HDV_364" depart="5169" from="j5tj3" to="j1tj8" type="HDV"/>
    <trip id="HDV_365" depart="5170" from="j8tj1" to="j3tj5" type="HDV"/>
    <trip id="CAV_366" depart="5212" from="j6tj4" to="j3tj2" type="CAV"/>
    <trip id="HDV_367" depart="5214" from="j8tj1" to="j3tj5" type="HDV"/>
    <trip id="HDV_368" depart="5215" from="j8tj1" to="j3tj5" type="HDV"/>
    <trip id="CAV_369" depart="5217" from="j2tj3" to="j1tj8" type="CAV"/>
    <trip id="HDV_370" depart="5220" from="j5tj3" to="j1tj8" type="HDV"/>
    <trip id="HDV_371" depart="5232" from="j8tj1" to="j3tj2" type="HDV"/>
    <trip id="CAV_372" depart="5235" from="j6tj4" to="j3tj2" type="CAV"/>
    <trip id="HDV_373" depart="5252" from="j5tj3" to="j1tj8" type="HDV"/>
    <trip id="HDV_374" depart="5266" from="j8tj1" to="j3tj2" type="HDV"/>
    <trip id="CAV_375" depart="5289" from="j2tj3" to="j1tj8" type="CAV"/>
    <trip id="HDV_376" depart="5300" from="j8tj1" to="j3tj2" type="HDV"/>
    <trip id="HDV_377" depart="5314" from="j8tj1" to="j3tj2" type="HDV"/>
    <trip id="CAV_378" depart="5330" from="j5tj3" to="j1tj8" type="CAV"/>
    <trip id="HDV_379" depart="5335" from="j8tj1" to="j3tj5" type="HDV"/>
    <trip id="HDV_380" depart="5345" from="j5tj3" to="j1tj8" type="HDV"/>
    <trip id="CAV_381" depart="5347" from="j8tj1" to="j3tj5" type="CAV"/>
    <trip id="HDV_382" depart="5348" from="j2tj3" to="j4tj6" type="HDV"/>
    <trip id="HDV_383" depart="5349" from="j6tj4" to="j3tj2" type="HDV"/>
    <trip id="CAV_384" depart="5372" from="j2tj3" to="j1tj8" type="CAV"/>
    <trip id="HDV_385" depart="5399" from="j8tj1" to="j3tj5" type="HDV"/>
    <trip id="HDV_386" depart="5400" from="j2tj3" to="j1tj8" type="HDV"/>
    <trip id="CAV_387" depart="5413" from="j8tj1" to="j3tj5" type="CAV"/>
    <trip id="HDV_388" depart="5424" from="j2tj3" to="j4tj6" type="HDV"/>
    <trip id="HDV_389" depart="5430" from="j8tj1" to="j3tj2" type="HDV"/>
    <trip id="CAV_390" depart="5433" from="j8tj1" to="j3tj2" type="CAV"/>
    <trip id="HDV_391" depart="5434" from="j8tj1" to="j3tj5" type="HDV"/>
    <trip id="HDV_392" depart="5439" from="j8tj1" to="j3tj2" type="HDV"/>
    <trip id="CAV_393" depart="5453" from="j6tj4" to="j3tj2" type="CAV"/>
    <trip id="HDV_394" depart="5483" from="j8tj1" to="j3tj2" type="HDV"/>
    <trip id="HDV_395" depart="5503" from="j2tj3" to="j1tj8" type="HDV"/>
    <trip id="CAV_396" depart="5515" from="j2tj3" to="j4tj6" type="CAV"/>
    <trip id="HDV_397" depart="5517" from="j2tj3" to="j1tj8" type="HDV"/>
    <trip id="HDV_398" depart="5520" from="j6tj4" to="j3tj2" type="HDV"/>
    <trip id="CAV_399" depart="5526" from="j5tj3" to="j1tj8" type="CAV"/>
    <trip id="HDV_400" depart="5527" from="j6tj4" to="j3tj2" type="HDV"/>
    <trip id="HDV_401" depart="5539" from="j2tj3" to="j4tj6" type="HDV"/>
    <trip id="CAV_402" depart="5569" from="j2tj3" to="j1tj8" type="CAV"/>
    <trip id="HDV_403" depart="5579" from="j8tj1" to="j3tj5" type="HDV"/>
    <trip id="HDV_404" depart="5592" from="j8tj1" to="j3tj5" type="HDV"/>
    <trip id="CAV_405" depart="5599" from="j2tj3" to="j1tj8" type="CAV"/>