<?xml version="1.0" encoding="UTF-8"?>

<!-- generated on 2025-01-09 14:56:54 by Eclipse SUMO duarouter Version 1.21.0
<duarouterConfiguration xmlns:xsi="http://www.w3.org/2001/XMLSchema-instance" xsi:noNamespaceSchemaLocation="http://sumo.dlr.de/xsd/duarouterConfiguration.xsd">

    <input>
        <net-file value="Map_new.net.xml"/>
        <route-files value="custom_gaussian.trips.xml"/>
    </input>

    <output>
        <output-file value="Gaussian.rou.xml"/>
    </output>

</duarouterConfiguration>
-->

<routes xmlns:xsi="http://www.w3.org/2001/XMLSchema-instance" xsi:noNamespaceSchemaLocation="http://sumo.dlr.de/xsd/routes_file.xsd">
    <vType id="CAV" length="4.00"/>
    <vehicle id="CAV_0" type="CAV" depart="7.00">
        <route edges="j8tj1 j1tj3 j3tj5"/>
    </vehicle>
    <vType id="HDV" length="4.00"/>
    <vehicle id="HDV_1" type="HDV" depart="25.00">
        <route edges="j8tj1 j1tj3 j3tj5"/>
    </vehicle>
    <vehicle id="HDV_2" type="HDV" depart="30.00">
        <route edges="j2tj3 j3tj1 j1tj8"/>
    </vehicle>
    <vehicle id="CAV_3" type="CAV" depart="44.00">
        <route edges="j2tj3 j3tj1 j1tj8"/>
    </vehicle>
    <vehicle id="HDV_4" type="HDV" depart="58.00">
        <route edges="j8tj1 j1tj3 j3tj5"/>
    </vehicle>
    <vehicle id="HDV_5" type="HDV" depart="69.00">
        <route edges="j6tj4 j4tj3 j3tj2"/>
    </vehicle>
    <vehicle id="CAV_6" type="CAV" depart="74.00">
        <route edges="j5tj3 j3tj1 j1tj8"/>
    </vehicle>
    <vehicle id="HDV_7" type="HDV" depart="89.00">
        <route edges="j5tj3 j3tj1 j1tj8"/>
    </vehicle>
    <vehicle id="HDV_8" type="HDV" depart="107.00">
        <route edges="j6tj4 j4tj3 j3tj2"/>
    </vehicle>
    <vehicle id="CAV_9" type="CAV" depart="129.00">
        <route edges="j8tj1 j1tj3 j3tj5"/>
    </vehicle>
    <vehicle id="HDV_10" type="HDV" depart="165.00">
        <route edges="j2tj3 j3tj1 j1tj8"/>
    </vehicle>
    <vehicle id="HDV_11" type="HDV" depart="176.00">
        <route edges="j6tj4 j4tj3 j3tj2"/>
    </vehicle>
    <vehicle id="CAV_12" type="CAV" depart="205.00">
        <route edges="j2tj3 j3tj1 j1tj8"/>
    </vehicle>
    <vehicle id="HDV_13" type="HDV" depart="226.00">
        <route edges="j2tj3 j3tj1 j1tj8"/>
    </vehicle>
    <vehicle id="HDV_14" type="HDV" depart="243.00">
        <route edges="j8tj1 j1tj3 j3tj5"/>
    </vehicle>
    <vehicle id="CAV_15" type="CAV" depart="260.00">
        <route edges="j2tj3 j3tj1 j1tj8"/>
    </vehicle>
    <vehicle id="HDV_16" type="HDV" depart="266.00">
        <route edges="j2tj3 j3tj1 j1tj8"/>
    </vehicle>
    <vehicle id="HDV_17" type="HDV" depart="348.00">
        <route edges="j8tj1 j1tj3 j3tj2"/>
    </vehicle>
    <vehicle id="CAV_18" type="CAV" depart="368.00">
        <route edges="j5tj3 j3tj1 j1tj8"/>
    </vehicle>
    <vehicle id="HDV_19" type="HDV" depart="394.00">
        <route edges="j2tj3 j3tj4 j4tj6"/>
    </vehicle>
    <vehicle id="HDV_20" type="HDV" depart="400.00">
        <route edges="j5tj3 j3tj1 j1tj8"/>
    </vehicle>
    <vehicle id="CAV_21" type="CAV" depart="458.00">
        <route edges="j8tj1 j1tj3 j3tj2"/>
    </vehicle>
    <vehicle id="HDV_22" type="HDV" depart="462.00">
        <route edges="j8tj1 j1tj3 j3tj5"/>
    </vehicle>
    <vehicle id="HDV_23" type="HDV" depart="478.00">
        <route edges="j8tj1 j1tj3 j3tj2"/>
    </vehicle>
    <vehicle id="CAV_24" type="CAV" depart="479.00">
        <route edges="j2tj3 j3tj4 j4tj6"/>
    </vehicle>
    <vehicle id="HDV_25" type="HDV" depart="485.00">
        <route edges="j8tj1 j1tj3 j3tj2"/>
    </vehicle>
    <vehicle id="HDV_26" type="HDV" depart="486.00">
        <route edges="j5tj3 j3tj1 j1tj8"/>
    </vehicle>
    <vehicle id="CAV_27" type="CAV" depart="490.00">
        <route edges="j2tj3 j3tj1 j1tj8"/>
    </vehicle>
    <vehicle id="HDV_28" type="HDV" depart="511.00">
        <route edges="j2tj3 j3tj1 j1tj8"/>
    </vehicle>
    <vehicle id="HDV_29" type="HDV" depart="524.00">
        <route edges="j2tj3 j3tj1 j1tj8"/>
    </vehicle>
    <vehicle id="CAV_30" type="CAV" depart="561.00">
        <route edges="j2tj3 j3tj4 j4tj6"/>
    </vehicle>
    <vehicle id="HDV_31" type="HDV" depart="595.00">
        <route edges="j2tj3 j3tj1 j1tj8"/>
    </vehicle>
    <vehicle id="HDV_32" type="HDV" depart="600.00">
        <route edges="j5tj3 j3tj1 j1tj8"/>
    </vehicle>
    <vehicle id="CAV_33" type="CAV" depart="607.00">
        <route edges="j8tj1 j1tj3 j3tj5"/>
    </vehicle>
    <vehicle id="HDV_34" type="HDV" depart="609.00">
        <route edges="j8tj1 j1tj3 j3tj2"/>
    </vehicle>
    <vehicle id="HDV_35" type="HDV" depart="642.00">
        <route edges="j5tj3 j3tj1 j1tj8"/>
    </vehicle>
    <vehicle id="CAV_36" type="CAV" depart="668.00">
        <route edges="j2tj3 j3tj1 j1tj8"/>
    </vehicle>
    <vehicle id="HDV_37" type="HDV" depart="669.00">
        <route edges="j2tj3 j3tj1 j1tj8"/>
    </vehicle>
    <vehicle id="HDV_38" type="HDV" depart="719.00">
        <route edges="j2tj3 j3tj1 j1tj8"/>
    </vehicle>
    <vehicle id="CAV_39" type="CAV" depart="723.00">
        <route edges="j8tj1 j1tj3 j3tj2"/>
    </vehicle>
    <vehicle id="HDV_40" type="HDV" depart="759.00">
        <route edges="j8tj1 j1tj3 j3tj5"/>
    </vehicle>
    <vehicle id="HDV_41" type="HDV" depart="769.00">
        <route edges="j6tj4 j4tj3 j3tj2"/>
    </vehicle>
    <vehicle id="CAV_42" type="CAV" depart="771.00">
        <route edges="j8tj1 j1tj3 j3tj2"/>
    </vehicle>
    <vehicle id="HDV_43" type="HDV" depart="771.00">
        <route edges="j8tj1 j1tj3 j3tj5"/>
    </vehicle>
    <vehicle id="HDV_44" type="HDV" depart="799.00">
        <route edges="j6tj4 j4tj3 j3tj2"/>
    </vehicle>
    <vehicle id="CAV_45" type="CAV" depart="811.00">
        <route edges="j8tj1 j1tj3 j3tj2"/>
    </vehicle>
    <vehicle id="HDV_46" type="HDV" depart="812.00">
        <route edges="j8tj1 j1tj3 j3tj5"/>
    </vehicle>
    <vehicle id="HDV_47" type="HDV" depart="844.00">
        <route edges="j5tj3 j3tj1 j1tj8"/>
    </vehicle>
    <vehicle id="CAV_48" type="CAV" depart="848.00">
        <route edges="j2tj3 j3tj1 j1tj8"/>
    </vehicle>
    <vehicle id="HDV_49" type="HDV" depart="878.00">
        <route edges="j8tj1 j1tj3 j3tj5"/>
    </vehicle>
    <vehicle id="HDV_50" type="HDV" depart="879.00">
        <route edges="j6tj4 j4tj3 j3tj2"/>
    </vehicle>
    <vehicle id="CAV_51" type="CAV" depart="914.00">
        <route edges="j8tj1 j1tj3 j3tj5"/>
    </vehicle>
    <vehicle id="HDV_52" type="HDV" depart="922.00">
        <route edges="j8tj1 j1tj3 j3tj2"/>
    </vehicle>
    <vehicle id="HDV_53" type="HDV" depart="936.00">
        <route edges="j8tj1 j1tj3 j3tj2"/>
    </vehicle>
    <vehicle id="CAV_54" type="CAV" depart="952.00">
        <route edges="j5tj3 j3tj1 j1tj8"/>
    </vehicle>
    <vehicle id="HDV_55" type="HDV" depart="963.00">
        <route edges="j2tj3 j3tj1 j1tj8"/>
    </vehicle>
    <vehicle id="HDV_56" type="HDV" depart="972.00">
        <route edges="j6tj4 j4tj3 j3tj2"/>
    </vehicle>
    <vehicle id="CAV_57" type="CAV" depart="982.00">
        <route edges="j5tj3 j3tj1 j1tj8"/>
    </vehicle>
    <vehicle id="HDV_58" type="HDV" depart="1017.00">
        <route edges="j2tj3 j3tj1 j1tj8"/>
    </vehicle>
    <vehicle id="HDV_59" type="HDV" depart="1045.00">
        <route edges="j8tj1 j1tj3 j3tj2"/>
    </vehicle>
    <vehicle id="CAV_60" type="CAV" depart="1090.00">
        <route edges="j5tj3 j3tj1 j1tj8"/>
    </vehicle>
    <vehicle id="HDV_61" type="HDV" depart="1111.00">
        <route edges="j8tj1 j1tj3 j3tj5"/>
    </vehicle>
    <vehicle id="HDV_62" type="HDV" depart="1112.00">
        <route edges="j2tj3 j3tj1 j1tj8"/>
    </vehicle>
    <vehicle id="CAV_63" type="CAV" depart="1135.00">
        <route edges="j2tj3 j3tj4 j4tj6"/>
    </vehicle>
    <vehicle id="HDV_64" type="HDV" depart="1155.00">
        <route edges="j2tj3 j3tj1 j1tj8"/>
    </vehicle>
    <vehicle id="HDV_65" type="HDV" depart="1169.00">
        <route edges="j5tj3 j3tj1 j1tj8"/>
    </vehicle>
    <vehicle id="CAV_66" type="CAV" depart="1175.00">
        <route edges="j5tj3 j3tj1 j1tj8"/>
    </vehicle>
    <vehicle id="HDV_67" type="HDV" depart="1179.00">
        <route edges="j5tj3 j3tj1 j1tj8"/>
    </vehicle>
    <vehicle id="HDV_68" type="HDV" depart="1197.00">
        <route edges="j5tj3 j3tj1 j1tj8"/>
    </vehicle>
    <vehicle id="CAV_69" type="CAV" depart="1226.00">
        <route edges="j8tj1 j1tj3 j3tj2"/>
    </vehicle>
    <vehicle id="HDV_70" type="HDV" depart="1235.00">
        <route edges="j2tj3 j3tj1 j1tj8"/>
    </vehicle>
    <vehicle id="HDV_71" type="HDV" depart="1244.00">
        <route edges="j8tj1 j1tj3 j3tj5"/>
    </vehicle>
    <vehicle id="CAV_72" type="CAV" depart="1246.00">
        <route edges="j2tj3 j3tj4 j4tj6"/>
    </vehicle>
    <vehicle id="HDV_73" type="HDV" depart="1283.00">
        <route edges="j2tj3 j3tj1 j1tj8"/>
    </vehicle>
    <vehicle id="HDV_74" type="HDV" depart="1287.00">
        <route edges="j8tj1 j1tj3 j3tj5"/>
    </vehicle>
    <vehicle id="CAV_75" type="CAV" depart="1292.00">
        <route edges="j8tj1 j1tj3 j3tj2"/>
    </vehicle>
    <vehicle id="HDV_76" type="HDV" depart="1293.00">
        <route edges="j5tj3 j3tj1 j1tj8"/>
    </vehicle>
    <vehicle id="HDV_77" type="HDV" depart="1306.00">
        <route edges="j2tj3 j3tj4 j4tj6"/>
    </vehicle>
    <vehicle id="CAV_78" type="CAV" depart="1329.00">
        <route edges="j6tj4 j4tj3 j3tj2"/>
    </vehicle>
    <vehicle id="HDV_79" type="HDV" depart="1384.00">
        <route edges="j6tj4 j4tj3 j3tj2"/>
    </vehicle>
    <vehicle id="HDV_80" type="HDV" depart="1398.00">
        <route edges="j2tj3 j3tj1 j1tj8"/>
    </vehicle>
    <vehicle id="CAV_81" type="CAV" depart="1405.00">
        <route edges="j8tj1 j1tj3 j3tj5"/>
    </vehicle>
    <vehicle id="HDV_82" type="HDV" depart="1418.00">
        <route edges="j8tj1 j1tj3 j3tj2"/>
    </vehicle>
    <vehicle id="HDV_83" type="HDV" depart="1420.00">
        <route edges="j8tj1 j1tj3 j3tj2"/>
    </vehicle>
    <vehicle id="CAV_84" type="CAV" depart="1427.00">
        <route edges="j6tj4 j4tj3 j3tj2"/>
    </vehicle>
    <vehicle id="HDV_85" type="HDV" depart="1459.00">
        <route edges="j8tj1 j1tj3 j3tj5"/>
    </vehicle>
    <vehicle id="HDV_86" type="HDV" depart="1475.00">
        <route edges="j8tj1 j1tj3 j3tj5"/>
    </vehicle>
    <vehicle id="CAV_87" type="CAV" depart="1492.00">
        <route edges="j2tj3 j3tj1 j1tj8"/>
    </vehicle>
    <vehicle id="HDV_88" type="HDV" depart="1494.00">
        <route edges="j2tj3 j3tj1 j1tj8"/>
    </vehicle>
    <vehicle id="HDV_89" type="HDV" depart="1500.00">
        <route edges="j8tj1 j1tj3 j3tj2"/>
    </vehicle>
    <vehicle id="CAV_90" type="CAV" depart="1506.00">
        <route edges="j5tj3 j3tj1 j1tj8"/>
    </vehicle>
    <vehicle id="HDV_91" type="HDV" depart="1513.00">
        <route edges="j2tj3 j3tj1 j1tj8"/>
    </vehicle>
    <vehicle id="HDV_92" type="HDV" depart="1524.00">
        <route edges="j2tj3 j3tj4 j4tj6"/>
    </vehicle>
    <vehicle id="CAV_93" type="CAV" depart="1537.00">
        <route edges="j5tj3 j3tj1 j1tj8"/>
    </vehicle>
    <vehicle id="HDV_94" type="HDV" depart="1547.00">
        <route edges="j8tj1 j1tj3 j3tj5"/>
    </vehicle>
    <vehicle id="HDV_95" type="HDV" depart="1552.00">
        <route edges="j5tj3 j3tj1 j1tj8"/>
    </vehicle>
    <vehicle id="CAV_96" type="CAV" depart="1588.00">
        <route edges="j2tj3 j3tj1 j1tj8"/>
    </vehicle>
    <vehicle id="HDV_97" type="HDV" depart="1604.00">
        <route edges="j2tj3 j3tj1 j1tj8"/>
    </vehicle>
    <vehicle id="HDV_98" type="HDV" depart="1626.00">
        <route edges="j6tj4 j4tj3 j3tj2"/>
    </vehicle>
    <vehicle id="CAV_99" type="CAV" depart="1643.00">
        <route edges="j6tj4 j4tj3 j3tj2"/>
    </vehicle>
    <vehicle id="HDV_100" type="HDV" depart="1658.00">
        <route edges="j5tj3 j3tj1 j1tj8"/>
    </vehicle>
    <vehicle id="HDV_101" type="HDV" depart="1669.00">
        <route edges="j8tj1 j1tj3 j3tj5"/>
    </vehicle>
    <vehicle id="CAV_102" type="CAV" depart="1684.00">
        <route edges="j2tj3 j3tj1 j1tj8"/>
    </vehicle>
    <vehicle id="HDV_103" type="HDV" depart="1701.00">
        <route edges="j8tj1 j1tj3 j3tj2"/>
    </vehicle>
    <vehicle id="HDV_104" type="HDV" depart="1702.00">
        <route edges="j8tj1 j1tj3 j3tj5"/>
    </vehicle>
    <vehicle id="CAV_105" type="CAV" depart="1765.00">
        <route edges="j6tj4 j4tj3 j3tj2"/>
    </vehicle>
    <vehicle id="HDV_106" type="HDV" depart="1770.00">
        <route edges="j2tj3 j3tj1 j1tj8"/>
    </vehicle>
    <vehicle id="HDV_107" type="HDV" depart="1779.00">
        <route edges="j6tj4 j4tj3 j3tj2"/>
    </vehicle>
    <vehicle id="CAV_108" type="CAV" depart="1807.00">
        <route edges="j8tj1 j1tj3 j3tj2"/>
    </vehicle>
    <vehicle id="HDV_109" type="HDV" depart="1812.00">
        <route edges="j2tj3 j3tj1 j1tj8"/>
    </vehicle>
    <vehicle id="HDV_110" type="HDV" depart="1813.00">
        <route edges="j6tj4 j4tj3 j3tj2"/>
    </vehicle>
    <vehicle id="CAV_111" type="CAV" depart="1817.00">
        <route edges="j5tj3 j3tj1 j1tj8"/>
    </vehicle>
    <vehicle id="HDV_112" type="HDV" depart="1843.00">
        <route edges="j5tj3 j3tj1 j1tj8"/>
    </vehicle>
    <vehicle id="HDV_113" type="HDV" depart="1859.00">
        <route edges="j6tj4 j4tj3 j3tj2"/>
    </vehicle>
    <vehicle id="CAV_114" type="CAV" depart="1862.00">
        <route edges="j2tj3 j3tj4 j4tj6"/>
    </vehicle>
    <vehicle id="HDV_115" type="HDV" depart="1874.00">
        <route edges="j6tj4 j4tj3 j3tj2"/>
    </vehicle>
    <vehicle id="HDV_116" type="HDV" depart="1882.00">
        <route edges="j8tj1 j1tj3 j3tj2"/>
    </vehicle>
    <vehicle id="CAV_117" type="CAV" depart="1911.00">
        <route edges="j2tj3 j3tj4 j4tj6"/>
    </vehicle>
    <vehicle id="HDV_118" type="HDV" depart="1918.00">
        <route edges="j6tj4 j4tj3 j3tj2"/>
    </vehicle>
    <vehicle id="HDV_119" type="HDV" depart="1919.00">
        <route edges="j6tj4 j4tj3 j3tj2"/>
    </vehicle>
    <vehicle id="CAV_120" type="CAV" depart="1938.00">
        <route edges="j5tj3 j3tj1 j1tj8"/>
    </vehicle>
    <vehicle id="HDV_121" type="HDV" depart="1951.00">
        <route edges="j2tj3 j3tj4 j4tj6"/>
    </vehicle>
    <vehicle id="HDV_122" type="HDV" depart="1973.00">
        <route edges="j5tj3 j3tj1 j1tj8"/>
    </vehicle>
    <vehicle id="CAV_123" type="CAV" depart="1977.00">
        <route edges="j8tj1 j1tj3 j3tj2"/>
    </vehicle>
    <vehicle id="HDV_124" type="HDV" depart="1979.00">
        <route edges="j6tj4 j4tj3 j3tj2"/>
    </vehicle>
    <vehicle id="HDV_125" type="HDV" depart="1999.00">
        <route edges="j5tj3 j3tj1 j1tj8"/>
    </vehicle>
    <vehicle id="CAV_126" type="CAV" depart="2017.00">
        <route edges="j8tj1 j1tj3 j3tj5"/>
    </vehicle>
    <vehicle id="HDV_127" type="HDV" depart="2021.00">
        <route edges="j2tj3 j3tj1 j1tj8"/>
    </vehicle>
    <vehicle id="HDV_128" type="HDV" depart="2048.00">
        <route edges="j5tj3 j3tj1 j1tj8"/>
    </vehicle>
    <vehicle id="CAV_129" type="CAV" depart="2057.00">
        <route edges="j2tj3 j3tj1 j1tj8"/>
    </vehicle>
    <vehicle id="HDV_130" type="HDV" depart="2073.00">
        <route edges="j5tj3 j3tj1 j1tj8"/>
    </vehicle>
    <vehicle id="HDV_131" type="HDV" depart="2074.00">
        <route edges="j6tj4 j4tj3 j3tj2"/>
    </vehicle>
    <vehicle id="CAV_132" type="CAV" depart="2076.00">
        <route edges="j8tj1 j1tj3 j3tj2"/>
    </vehicle>
    <vehicle id="HDV_133" type="HDV" depart="2085.00">
        <route edges="j2tj3 j3tj1 j1tj8"/>
    </vehicle>
    <vehicle id="HDV_134" type="HDV" depart="2097.00">
        <route edges="j6tj4 j4tj3 j3tj2"/>
    </vehicle>
    <vehicle id="CAV_135" type="CAV" depart="2100.00">
        <route edges="j8tj1 j1tj3 j3tj5"/>
    </vehicle>
    <vehicle id="HDV_136" type="HDV" depart="2109.00">
        <route edges="j2tj3 j3tj4 j4tj6"/>
    </vehicle>
    <vehicle id="HDV_137" type="HDV" depart="2114.00">
        <route edges="j2tj3 j3tj4 j4tj6"/>
    </vehicle>
    <vehicle id="CAV_138" type="CAV" depart="2118.00">
        <route edges="j2tj3 j3tj1 j1tj8"/>
    </vehicle>
    <vehicle id="HDV_139" type="HDV" depart="2121.00">
        <route edges="j2tj3 j3tj1 j1tj8"/>
    </vehicle>
    <vehicle id="HDV_140" type="HDV" depart="2132.00">
        <route edges="j8tj1 j1tj3 j3tj5"/>
    </vehicle>
    <vehicle id="CAV_141" type="CAV" depart="2142.00">
        <route edges="j8tj1 j1tj3 j3tj2"/>
    </vehicle>
    <vehicle id="HDV_142" type="HDV" depart="2153.00">
        <route edges="j2tj3 j3tj1 j1tj8"/>
    </vehicle>
    <vehicle id="HDV_143" type="HDV" depart="2167.00">
        <route edges="j6tj4 j4tj3 j3tj2"/>
    </vehicle>
    <vehicle id="CAV_144" type="CAV" depart="2180.00">
        <route edges="j6tj4 j4tj3 j3tj2"/>
    </vehicle>
    <vehicle id="HDV_145" type="HDV" depart="2194.00">
        <route edges="j2tj3 j3tj1 j1tj8"/>
    </vehicle>
    <vehicle id="HDV_146" type="HDV" depart="2207.00">
        <route edges="j6tj4 j4tj3 j3tj2"/>
    </vehicle>
    <vehicle id="CAV_147" type="CAV" depart="2232.00">
        <route edges="j8tj1 j1tj3 j3tj5"/>
    </vehicle>
    <vehicle id="HDV_148" type="HDV" depart="2260.00">
        <route edges="j2tj3 j3tj4 j4tj6"/>
    </vehicle>
    <vehicle id="HDV_149" type="HDV" depart="2315.00">
        <route edges="j2tj3 j3tj1 j1tj8"/>
    </vehicle>
    <vehicle id="CAV_150" type="CAV" depart="2326.00">
        <route edges="j8tj1 j1tj3 j3tj5"/>
    </vehicle>
    <vehicle id="HDV_151" type="HDV" depart="2330.00">
        <route edges="j8tj1 j1tj3 j3tj2"/>
    </vehicle>
    <vehicle id="HDV_152" type="HDV" depart="2359.00">
        <route edges="j8tj1 j1tj3 j3tj5"/>
    </vehicle>
    <vehicle id="CAV_153" type="CAV" depart="2370.00">
        <route edges="j8tj1 j1tj3 j3tj2"/>
    </vehicle>
    <vehicle id="HDV_154" type="HDV" depart="2371.00">
        <route edges="j2tj3 j3tj4 j4tj6"/>
    </vehicle>
    <vehicle id="HDV_155" type="HDV" depart="2375.00">
        <route edges="j6tj4 j4tj3 j3tj2"/>
    </vehicle>
    <vehicle id="CAV_156" type="CAV" depart="2377.00">
        <route edges="j6tj4 j4tj3 j3tj2"/>
    </vehicle>
    <vehicle id="HDV_157" type="HDV" depart="2379.00">
        <route edges="j6tj4 j4tj3 j3tj2"/>
    </vehicle>
    <vehicle id="HDV_158" type="HDV" depart="2383.00">
        <route edges="j6tj4 j4tj3 j3tj2"/>
    </vehicle>
    <vehicle id="CAV_159" type="CAV" depart="2388.00">
        <route edges="j2tj3 j3tj1 j1tj8"/>
    </vehicle>
    <vehicle id="HDV_160" type="HDV" depart="2433.00">
        <route edges="j6tj4 j4tj3 j3tj2"/>
    </vehicle>
    <vehicle id="HDV_161" type="HDV" depart="2438.00">
        <route edges="j6tj4 j4tj3 j3tj2"/>
    </vehicle>
    <vehicle id="CAV_162" type="CAV" depart="2448.00">
        <route edges="j8tj1 j1tj3 j3tj5"/>
    </vehicle>
    <vehicle id="HDV_163" type="HDV" depart="2461.00">
        <route edges="j8tj1 j1tj3 j3tj2"/>
    </vehicle>
    <vehicle id="HDV_164" type="HDV" depart="2471.00">
        <route edges="j8tj1 j1tj3 j3tj2"/>
    </vehicle>
    <vehicle id="CAV_165" type="CAV" depart="2492.00">
        <route edges="j2tj3 j3tj1 j1tj8"/>
    </vehicle>
    <vehicle id="HDV_166" type="HDV" depart="2518.00">
        <route edges="j2tj3 j3tj4 j4tj6"/>
    </vehicle>
    <vehicle id="HDV_167" type="HDV" depart="2539.00">
        <route edges="j8tj1 j1tj3 j3tj2"/>
    </vehicle>
    <vehicle id="CAV_168" type="CAV" depart="2539.00">
        <route edges="j2tj3 j3tj4 j4tj6"/>
    </vehicle>
    <vehicle id="HDV_169" type="HDV" depart="2542.00">
        <route edges="j2tj3 j3tj4 j4tj6"/>
    </vehicle>
    <vehicle id="HDV_170" type="HDV" depart="2549.00">
        <route edges="j5tj3 j3tj1 j1tj8"/>
    </vehicle>
    <vehicle id="CAV_171" type="CAV" depart="2614.00">
        <route edges="j5tj3 j3tj1 j1tj8"/>
    </vehicle>
    <vehicle id="HDV_172" type="HDV" depart="2619.00">
        <route edges="j8tj1 j1tj3 j3tj2"/>
    </vehicle>
    <vehicle id="HDV_173" type="HDV" depart="2644.00">
        <route edges="j6tj4 j4tj3 j3tj2"/>
    </vehicle>
    <vehicle id="CAV_174" type="CAV" depart="2671.00">
        <route edges="j5tj3 j3tj1 j1tj8"/>
    </vehicle>
    <vehicle id="HDV_175" type="HDV" depart="2694.00">
        <route edges="j5tj3 j3tj1 j1tj8"/>
    </vehicle>
    <vehicle id="HDV_176" type="HDV" depart="2705.00">
        <route edges="j2tj3 j3tj1 j1tj8"/>
    </vehicle>
    <vehicle id="CAV_177" type="CAV" depart="2705.00">
        <route edges="j8tj1 j1tj3 j3tj2"/>
    </vehicle>
    <vehicle id="HDV_178" type="HDV" depart="2752.00">
        <route edges="j8tj1 j1tj3 j3tj5"/>
    </vehicle>
    <vehicle id="HDV_179" type="HDV" depart="2756.00">
        <route edges="j8tj1 j1tj3 j3tj5"/>
    </vehicle>
    <vehicle id="CAV_180" type="CAV" depart="2760.00">
        <route edges="j8tj1 j1tj3 j3tj2"/>
    </vehicle>
    <vehicle id="HDV_181" type="HDV" depart="2772.00">
        <route edges="j2tj3 j3tj4 j4tj6"/>
    </vehicle>
    <vehicle id="HDV_182" type="HDV" depart="2785.00">
        <route edges="j2tj3 j3tj1 j1tj8"/>
    </vehicle>
    <vehicle id="CAV_183" type="CAV" depart="2785.00">
        <route edges="j8tj1 j1tj3 j3tj5"/>
    </vehicle>
    <vehicle id="HDV_184" type="HDV" depart="2819.00">
        <route edges="j8tj1 j1tj3 j3tj2"/>
    </vehicle>
    <vehicle id="HDV_185" type="HDV" depart="2829.00">
        <route edges="j2tj3 j3tj4 j4tj6"/>
    </vehicle>
    <vehicle id="CAV_186" type="CAV" depart="2836.00">
        <route edges="j8tj1 j1tj3 j3tj2"/>
    </vehicle>
    <vehicle id="HDV_187" type="HDV" depart="2838.00">
        <route edges="j8tj1 j1tj3 j3tj5"/>
    </vehicle>
    <vehicle id="HDV_188" type="HDV" depart="2841.00">
        <route edges="j8tj1 j1tj3 j3tj2"/>
    </vehicle>
    <vehicle id="CAV_189" type="CAV" depart="2843.00">
        <route edges="j5tj3 j3tj1 j1tj8"/>
    </vehicle>
    <vehicle id="HDV_190" type="HDV" depart="2850.00">
        <route edges="j6tj4 j4tj3 j3tj2"/>
    </vehicle>
    <vehicle id="HDV_191" type="HDV" depart="2887.00">
        <route edges="j5tj3 j3tj1 j1tj8"/>
    </vehicle>
    <vehicle id="CAV_192" type="CAV" depart="2896.00">
        <route edges="j6tj4 j4tj3 j3tj2"/>
    </vehicle>
    <vehicle id="HDV_193" type="HDV" depart="2928.00">
        <route edges="j8tj1 j1tj3 j3tj5"/>
    </vehicle>
    <vehicle id="HDV_194" type="HDV" depart="2937.00">
        <route edges="j5tj3 j3tj1 j1tj8"/>
    </vehicle>
    <vehicle id="CAV_195" type="CAV" depart="2966.00">
        <route edges="j8tj1 j1tj3 j3tj2"/>
    </vehicle>
    <vehicle id="HDV_196" type="HDV" depart="2981.00">
        <route edges="j8tj1 j1tj3 j3tj5"/>
    </vehicle>
    <vehicle id="HDV_197" type="HDV" depart="2981.00">
        <route edges="j8tj1 j1tj3 j3tj5"/>
    </vehicle>
    <vehicle id="CAV_198" type="CAV" depart="2985.00">
        <route edges="j6tj4 j4tj3 j3tj2"/>
    </vehicle>
    <vehicle id="HDV_199" type="HDV" depart="3002.00">
        <route edges="j8tj1 j1tj3 j3tj2"/>
    </vehicle>
    <vehicle id="HDV_200" type="HDV" depart="3011.00">
        <route edges="j6tj4 j4tj3 j3tj2"/>
    </vehicle>
    <vehicle id="CAV_201" type="CAV" depart="3031.00">
        <route edges="j2tj3 j3tj1 j1tj8"/>
    </vehicle>
    <vehicle id="HDV_202" type="HDV" depart="3034.00">
        <route edges="j8tj1 j1tj3 j3tj5"/>
    </vehicle>
    <vehicle id="HDV_203" type="HDV" depart="3044.00">
        <route edges="j2tj3 j3tj4 j4tj6"/>
    </vehicle>
    <vehicle id="CAV_204" type="CAV" depart="3053.00">
        <route edges="j2tj3 j3tj1 j1tj8"/>
    </vehicle>
    <vehicle id="HDV_205" type="HDV" depart="3060.00">
        <route edges="j8tj1 j1tj3 j3tj2"/>
    </vehicle>
    <vehicle id="HDV_206" type="HDV" depart="3102.00">
        <route edges="j6tj4 j4tj3 j3tj2"/>
    </vehicle>
    <vehicle id="CAV_207" type="CAV" depart="3175.00">
        <route edges="j8tj1 j1tj3 j3tj5"/>
    </vehicle>
    <vehicle id="HDV_208" type="HDV" depart="3188.00">
        <route edges="j8tj1 j1tj3 j3tj2"/>
    </vehicle>
    <vehicle id="HDV_209" type="HDV" depart="3189.00">
        <route edges="j8tj1 j1tj3 j3tj5"/>
    </vehicle>
    <vehicle id="CAV_210" type="CAV" depart="3208.00">
        <route edges="j2tj3 j3tj1 j1tj8"/>
    </vehicle>
    <vehicle id="HDV_211" type="HDV" depart="3219.00">
        <route edges="j8tj1 j1tj3 j3tj5"/>
    </vehicle>
    <vehicle id="HDV_212" type="HDV" depart="3219.00">
        <route edges="j6tj4 j4tj3 j3tj2"/>
    </vehicle>
    <vehicle id="CAV_213" type="CAV" depart="3225.00">
        <route edges="j6tj4 j4tj3 j3tj2"/>
    </vehicle>
    <vehicle id="HDV_214" type="HDV" depart="3240.00">
        <route edges="j2tj3 j3tj1 j1tj8"/>
    </vehicle>
    <vehicle id="HDV_215" type="HDV" depart="3263.00">
        <route edges="j8tj1 j1tj3 j3tj5"/>
    </vehicle>
    <vehicle id="CAV_216" type="CAV" depart="3265.00">
        <route edges="j2tj3 j3tj1 j1tj8"/>
    </vehicle>
    <vehicle id="HDV_217" type="HDV" depart="3298.00">
        <route edges="j2tj3 j3tj4 j4tj6"/>
    </vehicle>
    <vehicle id="HDV_218" type="HDV" depart="3299.00">
        <route edges="j2tj3 j3tj4 j4tj6"/>
    </vehicle>
    <vehicle id="CAV_219" type="CAV" depart="3352.00">
        <route edges="j5tj3 j3tj1 j1tj8"/>
    </vehicle>
    <vehicle id="HDV_220" type="HDV" depart="3371.00">
        <route edges="j2tj3 j3tj1 j1tj8"/>
    </vehicle>
    <vehicle id="HDV_221" type="HDV" depart="3396.00">
        <route edges="j6tj4 j4tj3 j3tj2"/>
    </vehicle>
    <vehicle id="CAV_222" type="CAV" depart="3413.00">
        <route edges="j8tj1 j1tj3 j3tj2"/>
    </vehicle>
    <vehicle id="HDV_223" type="HDV" depart="3418.00">
        <route edges="j6tj4 j4tj3 j3tj2"/>
    </vehicle>
    <vehicle id="HDV_224" type="HDV" depart="3440.00">
        <route edges="j8tj1 j1tj3 j3tj5"/>
    </vehicle>
    <vehicle id="CAV_225" type="CAV" depart="3481.00">
        <route edges="j6tj4 j4tj3 j3tj2"/>
    </vehicle>
    <vehicle id="HDV_226" type="HDV" depart="3484.00">
        <route edges="j8tj1 j1tj3 j3tj2"/>
    </vehicle>
    <vehicle id="HDV_227" type="HDV" depart="3518.00">
        <route edges="j6tj4 j4tj3 j3tj2"/>
    </vehicle>
    <vehicle id="CAV_228" type="CAV" depart="3546.00">
        <route edges="j5tj3 j3tj1 j1tj8"/>
    </vehicle>
    <vehicle id="HDV_229" type="HDV" depart="3561.00">
        <route edges="j5tj3 j3tj1 j1tj8"/>
    </vehicle>
    <vehicle id="HDV_230" type="HDV" depart="3574.00">
        <route edges="j2tj3 j3tj4 j4tj6"/>
    </vehicle>
    <vehicle id="CAV_231" type="CAV" depart="3582.00">
        <route edges="j2tj3 j3tj1 j1tj8"/>
    </vehicle>
    <vehicle id="HDV_232" type="HDV" depart="3584.00">
        <route edges="j6tj4 j4tj3 j3tj2"/>
    </vehicle>
    <vehicle id="HDV_233" type="HDV" depart="3604.00">
        <route edges="j2tj3 j3tj4 j4tj6"/>
    </vehicle>
    <vehicle id="CAV_234" type="CAV" depart="3621.00">
        <route edges="j6tj4 j4tj3 j3tj2"/>
    </vehicle>
    <vehicle id="HDV_235" type="HDV" depart="3633.00">
        <route edges="j8tj1 j1tj3 j3tj2"/>
    </vehicle>
    <vehicle id="HDV_236" type="HDV" depart="3641.00">
        <route edges="j5tj3 j3tj1 j1tj8"/>
    </vehicle>
    <vehicle id="CAV_237" type="CAV" depart="3645.00">
        <route edges="j2tj3 j3tj1 j1tj8"/>
    </vehicle>
    <vehicle id="HDV_238" type="HDV" depart="3666.00">
        <route edges="j2tj3 j3tj4 j4tj6"/>
    </vehicle>
    <vehicle id="HDV_239" type="HDV" depart="3673.00">
        <route edges="j2tj3 j3tj1 j1tj8"/>
    </vehicle>
    <vehicle id="CAV_240" type="CAV" depart="3675.00">
        <route edges="j5tj3 j3tj1 j1tj8"/>
    </vehicle>
    <vehicle id="HDV_241" type="HDV" depart="3686.00">
        <route edges="j6tj4 j4tj3 j3tj2"/>
    </vehicle>
    <vehicle id="HDV_242" type="HDV" depart="3686.00">
        <route edges="j2tj3 j3tj1 j1tj8"/>
    </vehicle>
    <vehicle id="CAV_243" type="CAV" depart="3686.00">
        <route edges="j8tj1 j1tj3 j3tj2"/>
    </vehicle>
    <vehicle id="HDV_244" type="HDV" depart="3702.00">
        <route edges="j2tj3 j3tj4 j4tj6"/>
    </vehicle>
    <vehicle id="HDV_245" type="HDV" depart="3706.00">
        <route edges="j8tj1 j1tj3 j3tj5"/>
    </vehicle>
    <vehicle id="CAV_246" type="CAV" depart="3770.00">
        <route edges="j2tj3 j3tj1 j1tj8"/>
    </vehicle>
    <vehicle id="HDV_247" type="HDV" depart="3772.00">
        <route edges="j2tj3 j3tj1 j1tj8"/>
    </vehicle>
    <vehicle id="HDV_248" type="HDV" depart="3800.00">
        <route edges="j2tj3 j3tj1 j1tj8"/>
    </vehicle>
    <vehicle id="CAV_249" type="CAV" depart="3812.00">
        <route edges="j6tj4 j4tj3 j3tj2"/>
    </vehicle>
    <vehicle id="HDV_250" type="HDV" depart="3816.00">
        <route edges="j6tj4 j4tj3 j3tj2"/>
    </vehicle>
    <vehicle id="HDV_251" type="HDV" depart="3833.00">
        <route edges="j6tj4 j4tj3 j3tj2"/>
    </vehicle>
    <vehicle id="CAV_252" type="CAV" depart="3846.00">
        <route edges="j5tj3 j3tj1 j1tj8"/>
    </vehicle>
    <vehicle id="HDV_253" type="HDV" depart="3858.00">
        <route edges="j8tj1 j1tj3 j3tj5"/>
    </vehicle>
    <vehicle id="HDV_254" type="HDV" depart="3859.00">
        <route edges="j2tj3 j3tj4 j4tj6"/>
    </vehicle>
    <vehicle id="CAV_255" type="CAV" depart="3882.00">
        <route edges="j6tj4 j4tj3 j3tj2"/>
    </vehicle>
    <vehicle id="HDV_256" type="HDV" depart="3928.00">
        <route edges="j8tj1 j1tj3 j3tj5"/>
    </vehicle>
    <vehicle id="HDV_257" type="HDV" depart="3929.00">
        <route edges="j5tj3 j3tj1 j1tj8"/>
    </vehicle>
    <vehicle id="CAV_258" type="CAV" depart="3954.00">
        <route edges="j6tj4 j4tj3 j3tj2"/>
    </vehicle>
    <vehicle id="HDV_259" type="HDV" depart="3961.00">
        <route edges="j8tj1 j1tj3 j3tj2"/>
    </vehicle>
    <vehicle id="HDV_260" type="HDV" depart="3963.00">