<routes>
<vTypeDistribution id="typedist1">
    <vType id="CAV" length="4" />
    <vType id="HDV" length="4" />
</vTypeDistribution>
    <trip id="CAV_0" depart="3" from="j9tj10" to="j5tj1" type="CAV"/>
    <trip id="HDV_1" depart="5" from="j8tj7" to="j10tj14" type="HDV"/>
    <trip id="HDV_2" depart="11" from="j3tj7" to="j12tj13" type="HDV"/>
    <trip id="CAV_3" depart="12" from="j8tj7" to="j5tj1" type="CAV"/>
    <trip id="HDV_4" depart="15" from="j15tj11" to="j10tj9" type="HDV"/>
    <trip id="HDV_5" depart="17" from="j13tj12" to="j6tj2" type="HDV"/>
    <trip id="CAV_6" depart="24" from="j14tj10" to="j12tj16" type="CAV"/>
    <trip id="HDV_7" depart="24" from="j15tj11" to="j5tj1" type="HDV"/>
    <trip id="HDV_8" depart="24" from="j13tj12" to="j7tj3" type="HDV"/>
    <trip id="CAV_9" depart="39" from="j15tj11" to="j5tj1" type="CAV"/>
    <trip id="HDV_10" depart="40" from="j13tj12" to="j5tj4" type="HDV"/>
    <trip id="HDV_11" depart="40" from="j1tj5" to="j12tj16" type="HDV"/>
    <trip id="CAV_12" depart="44" from="j14tj10" to="j7tj8" type="CAV"/>
    <trip id="HDV_13" depart="47" from="j2tj6" to="j11tj15" type="HDV"/>
    <trip id="HDV_14" depart="47" from="j1tj5" to="j7tj3" type="HDV"/>
    <trip id="CAV_15" depart="47" from="j4tj5" to="j10tj9" type="CAV"/>
    <trip id="HDV_16" depart="51" from="j14tj10" to="j7tj8" type="HDV"/>
    <trip id="HDV_17" depart="55" from="j16tj12" to="j5tj1" type="HDV"/>
    <trip id="CAV_18" depart="56" from="j15tj11" to="j7tj3" type="CAV"/>
    <trip id="HDV_19" depart="63" from="j1tj5" to="j7tj3" type="HDV"/>
    <trip id="HDV_20" depart="67" from="j13tj12" to="j10tj9" type="HDV"/>
    <trip id="CAV_21" depart="70" from="j13tj12" to="j5tj1" type="CAV"/>
    <trip id="HDV_22" depart="70" from="j4tj5" to="j10tj9" type="HDV"/>
    <trip id="HDV_23" depart="71" from="j15tj11" to="j12tj13" type="HDV"/>
    <trip id="CAV_24" depart="73" from="j16tj12" to="j10tj14" type="CAV"/>
    <trip id="HDV_25" depart="74" from="j14tj10" to="j5tj4" type="HDV"/>
    <trip id="HDV_26" depart="79" from="j2tj6" to="j7tj8" type="HDV"/>
    <trip id="CAV_27" depart="83" from="j8tj7" to="j6tj2" type="CAV"/>
    <trip id="HDV_28" depart="83" from="j2tj6" to="j12tj16" type="HDV"/>
    <trip id="HDV_29" depart="85" from="j14tj10" to="j6tj2" type="HDV"/>
    <trip id="CAV_30" depart="87" from="j15tj11" to="j5tj4" type="CAV"/>
    <trip id="HDV_31" depart="88" from="j14tj10" to="j5tj1" type="HDV"/>
    <trip id="HDV_32" depart="91" from="j1tj5" to="j7tj3" type="HDV"/>
    <trip id="CAV_33" depart="97" from="j1tj5" to="j10tj9" type="CAV"/>
    <trip id="HDV_34" depart="97" from="j15tj11" to="j7tj8" type="HDV"/>
    <trip id="HDV_35" depart="101" from="j13tj12" to="j5tj4" type="HDV"/>
    <trip id="CAV_36" depart="105" from="j16tj12" to="j10tj9" type="CAV"/>
    <trip id="HDV_37" depart="109" from="j1tj5" to="j7tj3" type="HDV"/>
    <trip id="HDV_38" depart="111" from="j14tj10" to="j7tj8" type="HDV"/>
    <trip id="CAV_39" depart="111" from="j3tj7" to="j12tj16" type="CAV"/>
    <trip id="HDV_40" depart="113" from="j15tj11" to="j7tj8" type="HDV"/>
    <trip id="HDV_41" depart="117" from="j9tj10" to="j7tj3" type="HDV"/>
    <trip id="CAV_42" depart="120" from="j15tj11" to="j12tj13" type="CAV"/>
    <trip id="HDV_43" depart="120" from="j1tj5" to="j10tj9" type="HDV"/>
    <trip id="HDV_44" depart="125" from="j14tj10" to="j5tj1" type="HDV"/>
    <trip id="CAV_45" depart="127" from="j16tj12" to="j7tj8" type="CAV"/>
    <trip id="HDV_46" depart="130" from="j13tj12" to="j5tj1" type="HDV"/>
    <trip id="HDV_47" depart="131" from="j15tj11" to="j10tj9" type="HDV"/>
    <trip id="CAV_48" depart="132" from="j2tj6" to="j5tj4" type="CAV"/>
    <trip id="HDV_49" depart="132" from="j1tj5" to="j10tj9" type="HDV"/>
    <trip id="HDV_50" depart="133" from="j16tj12" to="j7tj3" type="HDV"/>
    <trip id="CAV_51" depart="135" from="j3tj7" to="j11tj15" type="CAV"/>
    <trip id="HDV_52" depart="142" from="j2tj6" to="j10tj14" type="HDV"/>
    <trip id="HDV_53" depart="144" from="j8tj7" to="j12tj16" type="HDV"/>
    <trip id="CAV_54" depart="145" from="j1tj5" to="j10tj9" type="CAV"/>
    <trip id="HDV_55" depart="145" from="j14tj10" to="j5tj4" type="HDV"/>
    <trip id="HDV_56" depart="147" from="j15tj11" to="j6tj2" type="HDV"/>
    <trip id="CAV_57" depart="148" from="j3tj7" to="j12tj16" type="CAV"/>
    <trip id="HDV_58" depart="154" from="j8tj7" to="j6tj2" type="HDV"/>
    <trip id="HDV_59" depart="155" from="j15tj11" to="j5tj1" type="HDV"/>
    <trip id="CAV_60" depart="155" from="j15tj11" to="j7tj3" type="CAV"/>
    <trip id="HDV_61" depart="161" from="j2tj6" to="j11tj15" type="HDV"/>
    <trip id="HDV_62" depart="161" from="j16tj12" to="j7tj8" type="HDV"/>
    <trip id="CAV_63" depart="162" from="j15tj11" to="j6tj2" type="CAV"/>
    <trip id="HDV_64" depart="164" from="j9tj10" to="j5tj1" type="HDV"/>
    <trip id="HDV_65" depart="173" from="j3tj7" to="j10tj9" type="HDV"/>
    <trip id="CAV_66" depart="173" from="j8tj7" to="j12tj16" type="CAV"/>
    <trip id="HDV_67" depart="176" from="j14tj10" to="j12tj16" type="HDV"/>
    <trip id="HDV_68" depart="192" from="j13tj12" to="j5tj1" type="HDV"/>
    <trip id="CAV_69" depart="194" from="j1tj5" to="j11tj15" type="CAV"/>
    <trip id="HDV_70" depart="197" from="j15tj11" to="j7tj3" type="HDV"/>
    <trip id="HDV_71" depart="198" from="j13tj12" to="j10tj14" type="HDV"/>
    <trip id="CAV_72" depart="200" from="j13tj12" to="j5tj4" type="CAV"/>
    <trip id="HDV_73" depart="202" from="j14tj10" to="j12tj13" type="HDV"/>
    <trip id="HDV_74" depart="206" from="j8tj7" to="j11tj15" type="HDV"/>
    <trip id="CAV_75" depart="208" from="j16tj12" to="j7tj8" type="CAV"/>
    <trip id="HDV_76" depart="209" from="j8tj7" to="j5tj4" type="HDV"/>
    <trip id="HDV_77" depart="211" from="j16tj12" to="j7tj3" type="HDV"/>
    <trip id="CAV_78" depart="211" from="j15tj11" to="j5tj4" type="CAV"/>
    <trip id="HDV_79" depart="211" from="j3tj7" to="j11tj15" type="HDV"/>
    <trip id="HDV_80" depart="215" from="j2tj6" to="j11tj15" type="HDV"/>
    <trip id="CAV_81" depart="221" from="j15tj11" to="j10tj9" type="CAV"/>
    <trip id="HDV_82" depart="223" from="j16tj12" to="j5tj4" type="HDV"/>
    <trip id="HDV_83" depart="224" from="j1tj5" to="j12tj13" type="HDV"/>
    <trip id="CAV_84" depart="224" from="j2tj6" to="j12tj13" type="CAV"/>
    <trip id="HDV_85" depart="224" from="j16tj12" to="j6tj2" type="HDV"/>
    <trip id="HDV_86" depart="226" from="j8tj7" to="j10tj9" type="HDV"/>
    <trip id="CAV_87" depart="228" from="j13tj12" to="j6tj2" type="CAV"/>
    <trip id="HDV_88" depart="232" from="j2tj6" to="j10tj9" type="HDV"/>
    <trip id="HDV_89" depart="235" from="j2tj6" to="j10tj9" type="HDV"/>
    <trip id="CAV_90" depart="242" from="j8tj7" to="j6tj2" type="CAV"/>
    <trip id="HDV_91" depart="247" from="j16tj12" to="j10tj9" type="HDV"/>
    <trip id="HDV_92" depart="258" from="j15tj11" to="j7tj3" type="HDV"/>
    <trip id="CAV_93" depart="258" from="j9tj10" to="j6tj2" type="CAV"/>
    <trip id="HDV_94" depart="264" from="j1tj5" to="j7tj8" type="HDV"/>
    <trip id="HDV_95" depart="267" from="j14tj10" to="j5tj1" type="HDV"/>
    <trip id="CAV_96" depart="271" from="j14tj10" to="j7tj8" type="CAV"/>
    <trip id="HDV_97" depart="272" from="j4tj5" to="j10tj9" type="HDV"/>
    <trip id="HDV_98" depart="276" from="j8tj7" to="j10tj9" type="HDV"/>
    <trip id="CAV_99" depart="277" from="j4tj5" to="j10tj14" type="CAV"/>
    <trip id="HDV_100" depart="278" from="j15tj11" to="j7tj3" type="HDV"/>
    <trip id="HDV_101" depart="280" from="j1tj5" to="j7tj3" type="HDV"/>
    <trip id="CAV_102" depart="281" from="j3tj7" to="j12tj13" type="CAV"/>
    <trip id="HDV_103" depart="285" from="j1tj5" to="j11tj15" type="HDV"/>
    <trip id="HDV_104" depart="289" from="j3tj7" to="j12tj13" type="HDV"/>
    <trip id="CAV_105" depart="290" from="j2tj6" to="j12tj13" type="CAV"/>
    <trip id="HDV_106" depart="290" from="j15tj11" to="j10tj9" type="HDV"/>
    <trip id="HDV_107" depart="291" from="j9tj10" to="j5tj4" type="HDV"/>
    <trip id="CAV_108" depart="292" from="j4tj5" to="j12tj13" type="CAV"/>
    <trip id="HDV_109" depart="294" from="j1tj5" to="j7tj8" type="HDV"/>
    <trip id="HDV_110" depart="294" from="j14tj10" to="j5tj4" type="HDV"/>
    <trip id="CAV_111" depart="305" from="j1tj5" to="j10tj9" type="CAV"/>
    <trip id="HDV_112" depart="306" from="j16tj12" to="j7tj8" type="HDV"/>
    <trip id="HDV_113" depart="307" from="j3tj7" to="j5tj4" type="HDV"/>
    <trip id="CAV_114" depart="310" from="j9tj10" to="j5tj1" type="CAV"/>
    <trip id="HDV_115" depart="312" from="j3tj7" to="j11tj15" type="HDV"/>
    <trip id="HDV_116" depart="314" from="j2tj6" to="j10tj9" type="HDV"/>
    <trip id="CAV_117" depart="315" from="j14tj10" to="j5tj4" type="CAV"/>
    <trip id="HDV_118" depart="316" from="j14tj10" to="j5tj4" type="HDV"/>
    <trip id="HDV_119" depart="317" from="j4tj5" to="j11tj15" type="HDV"/>
    <trip id="CAV_120" depart="321" from="j14tj10" to="j5tj4" type="CAV"/>
    <trip id="HDV_121" depart="321" from="j15tj11" to="j5tj1" type="HDV"/>
    <trip id="HDV_122" depart="322" from="j15tj11" to="j5tj1" type="HDV"/>
    <trip id="CAV_123" depart="329" from="j2tj6" to="j5tj4" type="CAV"/>
    <trip id="HDV_124" depart="333" from="j15tj11" to="j5tj1" type="HDV"/>
    <trip id="HDV_125" depart="334" from="j3tj7" to="j10tj9" type="HDV"/>
    <trip id="CAV_126" depart="337" from="j9tj10" to="j5tj1" type="CAV"/>
    <trip id="HDV_127" depart="338" from="j14tj10" to="j7tj8" type="HDV"/>
    <trip id="HDV_128" depart="347" from="j2tj6" to="j7tj8" type="HDV"/>
    <trip id="CAV_129" depart="350" from="j16tj12" to="j10tj14" type="CAV"/>
    <trip id="HDV_130" depart="351" from="j14tj10" to="j7tj3" type="HDV"/>
    <trip id="HDV_131" depart="355" from="j1tj5" to="j7tj3" type="HDV"/>
    <trip id="CAV_132" depart="356" from="j9tj10" to="j11tj15" type="CAV"/>
    <trip id="HDV_133" depart="358" from="j15tj11" to="j6tj2" type="HDV"/>
    <trip id="HDV_134" depart="363" from="j2tj6" to="j5tj4" type="HDV"/>
    <trip id="CAV_135" depart="364" from="j1tj5" to="j12tj16" type="CAV"/>
    <trip id="HDV_136" depart="367" from="j14tj10" to="j5tj4" type="HDV"/>
    <trip id="HDV_137" depart="373" from="j14tj10" to="j5tj1" type="HDV"/>
    <trip id="CAV_138" depart="374" from="j13tj12" to="j11tj15" type="CAV"/>
    <trip id="HDV_139" depart="374" from="j15tj11" to="j5tj4" type="HDV"/>
    <trip id="HDV_140" depart="376" from="j1tj5" to="j7tj8" type="HDV"/>
    <trip id="CAV_141" depart="377" from="j14tj10" to="j7tj8" type="CAV"/>
    <trip id="HDV_142" depart="379" from="j4tj5" to="j6tj2" type="HDV"/>
    <trip id="HDV_143" depart="380" from="j2tj6" to="j11tj15" type="HDV"/>
    <trip id="CAV_144" depart="381" from="j13tj12" to="j6tj2" type="CAV"/>
    <trip id="HDV_145" depart="381" from="j15tj11" to="j5tj4" type="HDV"/>
    <trip id="HDV_146" depart="382" from="j2tj6" to="j10tj14" type="HDV"/>
    <trip id="CAV_147" depart="382" from="j8tj7" to="j12tj16" type="CAV"/>
    <trip id="HDV_148" depart="382" from="j9tj10" to="j5tj1" type="HDV"/>
    <trip id="HDV_149" depart="383" from="j8tj7" to="j12tj16" type="HDV"/>
    <trip id="CAV_150" depart="386" from="j13tj12" to="j10tj9" type="CAV"/>
    <trip id="HDV_151" depart="390" from="j8tj7" to="j5tj1" type="HDV"/>
    <trip id="HDV_152" depart="392" from="j14tj10" to="j6tj2" type="HDV"/>
    <trip id="CAV_153" depart="397" from="j3tj7" to="j5tj1" type="CAV"/>
    <trip id="HDV_154" depart="398" from="j2tj6" to="j12tj16" type="HDV"/>
    <trip id="HDV_155" depart="400" from="j9tj10" to="j12tj16" type="HDV"/>
    <trip id="CAV_156" depart="400" from="j14tj10" to="j7tj3" type="CAV"/>
    <trip id="HDV_157" depart="401" from="j2tj6" to="j10tj14" type="HDV"/>
    <trip id="HDV_158" depart="403" from="j4tj5" to="j12tj16" type="HDV"/>
    <trip id="CAV_159" depart="406" from="j2tj6" to="j10tj14" type="CAV"/>
    <trip id="HDV_160" depart="407" from="j13tj12" to="j10tj9" type="HDV"/>
    <trip id="HDV_161" depart="412" from="j16tj12" to="j6tj2" type="HDV"/>
    <trip id="CAV_162" depart="415" from="j3tj7" to="j10tj14" type="CAV"/>
    <trip id="HDV_163" depart="418" from="j13tj12" to="j6tj2" type="HDV"/>
    <trip id="HDV_164" depart="422" from="j8tj7" to="j6tj2" type="HDV"/>
    <trip id="CAV_165" depart="424" from="j2tj6" to="j10tj14" type="CAV"/>
    <trip id="HDV_166" depart="433" from="j14tj10" to="j12tj16" type="HDV"/>
    <trip id="HDV_167" depart="433" from="j16tj12" to="j10tj14" type="HDV"/>
    <trip id="CAV_168" depart="434" from="j16tj12" to="j5tj4" type="CAV"/>
    <trip id="HDV_169" depart="434" from="j8tj7" to="j6tj2" type="HDV"/>
    <trip id="HDV_170" depart="435" from="j4tj5" to="j10tj14" type="HDV"/>
    <trip id="CAV_171" depart="443" from="j2tj6" to="j11tj15" type="CAV"/>
    <trip id="HDV_172" depart="443" from="j4tj5" to="j7tj8" type="HDV"/>
    <trip id="HDV_173" depart="445" from="j4tj5" to="j12tj16" type="HDV"/>
    <trip id="CAV_174" depart="449" from="j1tj5" to="j7tj3" type="CAV"/>
    <trip id="HDV_175" depart="452" from="j2tj6" to="j10tj14" type="HDV"/>
    <trip id="HDV_176" depart="452" from="j3tj7" to="j12tj16" type="HDV"/>
    <trip id="CAV_177" depart="452" from="j4tj5" to="j10tj14" type="CAV"/>
    <trip id="HDV_178" depart="459" from="j16tj12" to="j7tj8" type="HDV"/>
    <trip id="HDV_179" depart="460" from="j8tj7" to="j12tj16" type="HDV"/>
    <trip id="CAV_180" depart="466" from="j2tj6" to="j10tj9" type="CAV"/>
    <trip id="HDV_181" depart="466" from="j8tj7" to="j10tj14" type="HDV"/>
    <trip id="HDV_182" depart="467" from="j4tj5" to="j10tj9" type="HDV"/>
    <trip id="CAV_183" depart="467" from="j13tj12" to="j5tj1" type="CAV"/>
    <trip id="HDV_184" depart="467" from="j2tj6" to="j12tj13" type="HDV"/>
    <trip id="HDV_185" depart="469" from="j14tj10" to="j12tj13" type="HDV"/>
    <trip id="CAV_186" depart="472" from="j1tj5" to="j11tj15" type="CAV"/>
    <trip id="HDV_187" depart="473" from="j13tj12" to="j11tj15" type="HDV"/>
    <trip id="HDV_188" depart="474" from="j8tj7" to="j12tj16" type="HDV"/>
    <trip id="CAV_189" depart="474" from="j2tj6" to="j5tj4" type="CAV"/>
    <trip id="HDV_190" depart="475" from="j15tj11" to="j5tj4" type="HDV"/>
    <trip id="HDV_191" depart="475" from="j9tj10" to="j11tj15" type="HDV"/>
    <trip id="CAV_192" depart="477" from="j13tj12" to="j7tj3" type="CAV"/>
    <trip id="HDV_193" depart="477" from="j16tj12" to="j5tj4" type="HDV"/>
    <trip id="HDV_194" depart="479" from="j15tj11" to="j6tj2" type="HDV"/>
    <trip id="CAV_195" depart="481" from="j3tj7" to="j12tj16" type="CAV"/>
    <trip id="HDV_196" depart="484" from="j3tj7" to="j11tj15" type="HDV"/>
    <trip id="HDV_197" depart="488" from="j16tj12" to="j7tj3" type="HDV"/>
    <trip id="CAV_198" depart="491" from="j2tj6" to="j12tj16" type="CAV"/>
    <trip id="HDV_199" depart="495" from="j4tj5" to="j12tj16" type="HDV"/>
    <trip id="HDV_200" depart="495" from="j14tj10" to="j12tj13" type="HDV"/>
    <trip id="CAV_201" depart="496" from="j2tj6" to="j12tj16" type="CAV"/>
    <trip id="HDV_202" depart="497" from="j15tj11" to="j12tj13" type="HDV"/>
    <trip id="HDV_203" depart="503" from="j3tj7" to="j12tj16" type="HDV"/>
    <trip id="CAV_204" depart="508" from="j9tj10" to="j7tj3" type="CAV"/>
    <trip id="HDV_205" depart="509" from="j13tj12" to="j11tj15" type="HDV"/>
    <trip id="HDV_206" depart="510" from="j16tj12" to="j7tj3" type="HDV"/>
    <trip id="CAV_207" depart="510" from="j9tj10" to="j7tj8" type="CAV"/>
    <trip id="HDV_208" depart="512" from="j2tj6" to="j12tj16" type="HDV"/>
    <trip id="HDV_209" depart="514" from="j2tj6" to="j11tj15" type="HDV"/>
    <trip id="CAV_210" depart="521" from="j1tj5" to="j11tj15" type="CAV"/>
    <trip id="HDV_211" depart="523" from="j8tj7" to="j5tj1" type="HDV"/>
    <trip id="HDV_212" depart="526" from="j13tj12" to="j5tj4" type="HDV"/>
    <trip id="CAV_213" depart="526" from="j15tj11" to="j5tj4" type="CAV"/>
    <trip id="HDV_214" depart="530" from="j3tj7" to="j11tj15" type="HDV"/>
    <trip id="HDV_215" depart="535" from="j16tj12" to="j7tj3" type="HDV"/>
    <trip id="CAV_216" depart="535" from="j4tj5" to="j7tj8" type="CAV"/>
    <trip id="HDV_217" depart="538" from="j3tj7" to="j12tj16" type="HDV"/>
    <trip id="HDV_218" depart="539" from="j9tj10" to="j12tj13" type="HDV"/>
    <trip id="CAV_219" depart="540" from="j13tj12" to="j10tj14" type="CAV"/>
    <trip id="HDV_220" depart="541" from="j4tj5" to="j11tj15" type="HDV"/>
    <trip id="HDV_221" depart="541" from="j16tj12" to="j5tj4" type="HDV"/>
    <trip id="CAV_222" depart="545" from="j3tj7" to="j5tj1" type="CAV"/>
    <trip id="HDV_223" depart="548" from="j16tj12" to="j5tj4" type="HDV"/>
    <trip id="HDV_224" depart="553" from="j3tj7" to="j12tj13" type="HDV"/>
    <trip id="CAV_225" depart="555" from="j15tj11" to="j12tj13" type="CAV"/>
    <trip id="HDV_226" depart="557" from="j13tj12" to="j11tj15" type="HDV"/>
    <trip id="HDV_227" depart="559" from="j14tj10" to="j7tj8" type="HDV"/>
    <trip id="CAV_228" depart="560" from="j13tj12" to="j7tj3" type="CAV"/>
    <trip id="HDV_229" depart="564" from="j9tj10" to="j12tj16" type="HDV"/>
    <trip id="HDV_230" depart="564" from="j9tj10" to="j6tj2" type="HDV"/>
    <trip id="CAV_231" depart="566" from="j14tj10" to="j5tj4" type="CAV"/>
    <trip id="HDV_232" depart="569" from="j3tj7" to="j12tj16" type="HDV"/>
    <trip id="HDV_233" depart="570" from="j3tj7" to="j11tj15" type="HDV"/>
    <trip id="CAV_234" depart="573" from="j16tj12" to="j10tj14" type="CAV"/>
    <trip id="HDV_235" depart="578" from="j9tj10" to="j5tj1" type="HDV"/>
    <trip id="HDV_236" depart="581" from="j14tj10" to="j6tj2" type="HDV"/>
    <trip id="CAV_237" depart="581" from="j3tj7" to="j12tj13" type="CAV"/>
    <trip id="HDV_238" depart="582" from="j4tj5" to="j7tj8" type="HDV"/>
    <trip id="HDV_239" depart="583" from="j16tj12" to="j7tj8" type="HDV"/>
    <trip id="CAV_240" depart="589" from="j14tj10" to="j6tj2" type="CAV"/>
    <trip id="HDV_241" depart="590" from="j13tj12" to="j7tj3" type="HDV"/>
    <trip id="HDV_242" depart="590" from="j3tj7" to="j10tj14" type="HDV"/>
    <trip id="CAV_243" depart="591" from="j9tj10" to="j7tj8" type="CAV"/>
    <trip id="HDV_244" depart="595" from="j13tj12" to="j5tj1" type="HDV"/>
    <trip id="HDV_245" depart="596" from="j3tj7" to="j12tj13" type="HDV"/>
    <trip id="CAV_246" depart="597" from="j15tj11" to="j6tj2" type="CAV"/>
    <trip id="HDV_247" depart="602" from="j16tj12" to="j6tj2" type="HDV"/>
    <trip id="HDV_248" depart="608" from="j3tj7" to="j10tj9" type="HDV"/>
    <trip id="CAV_249" depart="608" from="j14tj10" to="j6tj2" type="CAV"/>
    <trip id="HDV_250" depart="609" from="j2tj6" to="j7tj8" type="HDV"/>
    <trip id="HDV_251" depart="610" from="j16tj12" to="j10tj14" type="HDV"/>
    <trip id="CAV_252" depart="612" from="j16tj12" to="j7tj8" type="CAV"/>
    <trip id="HDV_253" depart="613" from="j4tj5" to="j12tj13" type="HDV"/>
    <trip id="HDV_254" depart="617" from="j2tj6" to="j7tj8" type="HDV"/>
    <trip id="CAV_255" depart="618" from="j4tj5" to="j12tj16" type="CAV"/>
    <trip id="HDV_256" depart="623" from="j14tj10" to="j5tj4" type="HDV"/>
    <trip id="HDV_257" depart="624" from="j16tj12" to="j5tj4" type="HDV"/>
    <trip id="CAV_258" depart="626" from="j16tj12" to="j6tj2" type="CAV"/>
    <trip id="HDV_259" depart="637" from="j4tj5" to="j12tj16" type="HDV"/>
    <trip id="HDV_260" depart="643" from="j14tj10" to="j6tj2" type="HDV"/>
    <trip id="CAV_261" depart="646" from="j16tj12" to="j10tj14" type="CAV"/>
    <trip id="HDV_262" depart="649" from="j4tj5" to="j7tj3" type="HDV"/>
    <trip id="HDV_263" depart="651" from="j2tj6" to="j5tj4" type="HDV"/>
    <trip id="CAV_264" depart="657" from="j13tj12" to="j10tj14" type="CAV"/>
    <trip id="HDV_265" depart="657" from="j1tj5" to="j10tj14" type="HDV"/>
    <trip id="HDV_266" depart="659" from="j1tj5" to="j7tj8" type="HDV"/>
    <trip id="CAV_267" depart="662" from="j9tj10" to="j6tj2" type="CAV"/>
    <trip id="HDV_268" depart="665" from="j4tj5" to="j12tj16" type="HDV"/>
    <trip id="HDV_269" depart="666" from="j3tj7" to="j11tj15" type="HDV"/>
    <trip id="CAV_270" depart="667" from="j9tj10" to="j12tj13" type="CAV"/>
    <trip id="HDV_271" depart="668" from="j15tj11" to="j7tj3" type="HDV"/>
    <trip id="HDV_272" depart="668" from="j1tj5" to="j10tj14" type="HDV"/>
    <trip id="CAV_273" depart="669" from="j13tj12" to="j7tj3" type="CAV"/>
    <trip id="HDV_274" depart="669" from="j16tj12" to="j5tj4" type="HDV"/>
    <trip id="HDV_275" depart="672" from="j9tj10" to="j5tj4" type="HDV"/>
    <trip id="CAV_276" depart="673" from="j13tj12" to="j6tj2" type="CAV"/>
    <trip id="HDV_277" depart="681" from="j13tj12" to="j6tj2" type="HDV"/>
    <trip id="HDV_278" depart="682" from="j8tj7" to="j5tj1" type="HDV"/>
    <trip id="CAV_279" depart="682" from="j9tj10" to="j11tj15" type="CAV"/>
    <trip id="HDV_280" depart="685" from="j8tj7" to="j12tj16" type="HDV"/>
    <trip id="HDV_281" depart="686" from="j16tj12" to="j7tj3" type="HDV"/>
    <trip id="CAV_282" depart="686" from="j2tj6" to="j12tj16" type="CAV"/>
    <trip id="HDV_283" depart="688" from="j9tj10" to="j12tj13" type="HDV"/>
    <trip id="HDV_284" depart="688" from="j14tj10" to="j12tj16" type="HDV"/>
    <trip id="CAV_285" depart="689" from="j8tj7" to="j5tj4" type="CAV"/>
    <trip id="HDV_286" depart="691" from="j3tj7" to="j12tj16" type="HDV"/>
    <trip id="HDV_287" depart="695" from="j4tj5" to="j7tj8" type="HDV"/>
    <trip id="CAV_288" depart="697" from="j9tj10" to="j5tj1" type="CAV"/>
    <trip id="HDV_289" depart="697" from="j2tj6" to="j11tj15" type="HDV"/>
    <trip id="HDV_290" depart="701" from="j4tj5" to="j12tj16" type="HDV"/>
    <trip id="CAV_291" depart="702" from="j1tj5" to="j7tj8" type="CAV"/>
    <trip id="HDV_292" depart="703" from="j4tj5" to="j12tj13" type="HDV"/>
    <trip id="HDV_293" depart="708" from="j3tj7" to="j11tj15" type="HDV"/>
    <trip id="CAV_294" depart="712" from="j13tj12" to="j7tj3" type="CAV"/>
    <trip id="HDV_295" depart="718" from="j14tj10" to="j12tj16" type="HDV"/>
    <trip id="HDV_296" depart="729" from="j3tj7" to="j11tj15" type="HDV"/>
    <trip id="CAV_297" depart="730" from="j13tj12" to="j5tj1" type="CAV"/>
    <trip id="HDV_298" depart="733" from="j4tj5" to="j10tj9" type="HDV"/>
    <trip id="HDV_299" depart="734" from="j4tj5" to="j12tj13" type="HDV"/>
    <trip id="CAV_300" depart="736" from="j2tj6" to="j12tj16" type="CAV"/>
    <trip id="HDV_301" depart="742" from="j16tj12" to="j10tj9" type="HDV"/>
    <trip id="HDV_302" depart="743" from="j13tj12" to="j5tj4" type="HDV"/>
    <trip id="CAV_303" depart="745" from="j14tj10" to="j7tj3" type="CAV"/>
    <trip id="HDV_304" depart="748" from="j13tj12" to="j10tj9" type="HDV"/>
    <trip id="HDV_305" depart="748" from="j15tj11" to="j6tj2" type="HDV"/>
    <trip id="CAV_306" depart="750" from="j2tj6" to="j10tj9" type="CAV"/>
    <trip id="HDV_307" depart="752" from="j9tj10" to="j5tj4" type="HDV"/>
    <trip id="HDV_308" depart="754" from="j2tj6" to="j7tj8" type="HDV"/>
    <trip id="CAV_309" depart="755" from="j15tj11" to="j10tj9" type="CAV"/>
    <trip id="HDV_310" depart="757" from="j16tj12" to="j5tj1" type="HDV"/>
    <trip id="HDV_311" depart="760" from="j3tj7" to="j10tj14" type="HDV"/>
    <trip id="CAV_312" depart="764" from="j4tj5" to="j12tj16" type="CAV"/>
    <trip id="HDV_313" depart="774" from="j2tj6" to="j12tj16" type="HDV"/>
    <trip id="HDV_314" depart="776" from="j3tj7" to="j12tj16" type="HDV"/>
    <trip id="CAV_315" depart="777" from="j3tj7" to="j5tj1" type="CAV"/>
    <trip id="HDV_316" depart="780" from="j3tj7" to="j11tj15" type="HDV"/>
    <trip id="HDV_317" depart="785" from="j14tj10" to="j5tj4" type="HDV"/>
    <trip id="CAV_318" depart="785" from="j3tj7" to="j5tj4" type="CAV"/>
    <trip id="HDV_319" depart="786" from="j9tj10" to="j5tj1" type="HDV"/>
    <trip id="HDV_320" depart="790" from="j3tj7" to="j10tj14" type="HDV"/>
    <trip id="CAV_321" depart="790" from="j2tj6" to="j12tj16" type="CAV"/>
    <trip id="HDV_322" depart="790" from="j3tj7" to="j10tj9" type="HDV"/>
    <trip id="HDV_323" depart="793" from="j13tj12" to="j7tj3" type="HDV"/>
    <trip id="CAV_324" depart="795" from="j16tj12" to="j7tj3" type="CAV"/>
    <trip id="HDV_325" depart="796" from="j1tj5" to="j7tj8" type="HDV"/>
    <trip id="HDV_326" depart="797" from="j2tj6" to="j10tj14" type="HDV"/>
    <trip id="CAV_327" depart="798" from="j9tj10" to="j11tj15" type="CAV"/>
    <trip id="HDV_328" depart="799" from="j3tj7" to="j12tj13" type="HDV"/>
    <trip id="HDV_329" depart="800" from="j15tj11" to="j10tj9" type="HDV"/>
    <trip id="CAV_330" depart="806" from="j9tj10" to="j12tj13" type="CAV"/>
    <trip id="HDV_331" depart="808" from="j8tj7" to="j5tj1" type="HDV"/>
    <trip id="HDV_332" depart="811" from="j8tj7" to="j6tj2" type="HDV"/>
    <trip id="CAV_333" depart="816" from="j9tj10" to="j5tj4" type="CAV"/>
    <trip id="HDV_334" depart="817" from="j13tj12" to="j5tj1" type="HDV"/>
    <trip id="HDV_335" depart="819" from="j1tj5" to="j7tj8" type="HDV"/>
    <trip id="CAV_336" depart="819" from="j15tj11" to="j10tj9" type="CAV"/>
    <trip id="HDV_337" depart="822" from="j14tj10" to="j6tj2" type="HDV"/>
    <trip id="HDV_338" depart="822" from="j16tj12" to="j10tj14" type="HDV"/>
    <trip id="CAV_339" depart="823" from="j14tj10" to="j6tj2" type="CAV"/>
    <trip id="HDV_340" depart="827" from="j14tj10" to="j5tj4" type="HDV"/>
    <trip id="HDV_341" depart="827" from="j13tj12" to="j5tj1" type="HDV"/>
    <trip id="CAV_342" depart="828" from="j14tj10" to="j12tj13" type="CAV"/>
    <trip id="HDV_343" depart="829" from="j1tj5" to="j11tj15" type="HDV"/>
    <trip id="HDV_344" depart="830" from="j16tj12" to="j7tj3" type="HDV"/>
    <trip id="CAV_345" depart="834" from="j2tj6" to="j10tj9" type="CAV"/>
    <trip id="HDV_346" depart="836" from="j4tj5" to="j7tj3" type="HDV"/>
    <trip id="HDV_347" depart="839" from="j3tj7" to="j12tj16" type="HDV"/>
    <trip id="CAV_348" depart="850" from="j4tj5" to="j6tj2" type="CAV"/>
    <trip id="HDV_349" depart="850" from="j8tj7" to="j11tj15" type="HDV"/>
    <trip id="HDV_350" depart="851" from="j3tj7" to="j11tj15" type="HDV"/>
    <trip id="CAV_351" depart="852" from="j1tj5" to="j11tj15" type="CAV"/>
    <trip id="HDV_352" depart="853" from="j2tj6" to="j10tj9" type="HDV"/>
    <trip id="HDV_353" depart="854" from="j4tj5" to="j11tj15" type="HDV"/>
    <trip id="CAV_354" depart="855" from="j1tj5" to="j10tj9" type="CAV"/>
    <trip id="HDV_355" depart="855" from="j2tj6" to="j10tj9" type="HDV"/>
    <trip id="HDV_356" depart="855" from="j4tj5" to="j11tj15" type="HDV"/>
    <trip id="CAV_357" depart="857" from="j14tj10" to="j7tj8" type="CAV"/>
    <trip id="HDV_358" depart="858" from="j2tj6" to="j11tj15" type="HDV"/>
    <trip id="HDV_359" depart="858" from="j15tj11" to="j12tj13" type="HDV"/>
    <trip id="CAV_360" depart="859" from="j15tj11" to="j10tj9" type="CAV"/>
    <trip id="HDV_361" depart="866" from="j9tj10" to="j7tj8" type="HDV"/>
    <trip id="HDV_362" depart="869" from="j8tj7" to="j6tj2" type="HDV"/>
    <trip id="CAV_363" depart="872" from="j16tj12" to="j7tj8" type="CAV"/>
    <trip id="HDV_364" depart="873" from="j2tj6" to="j5tj4" type="HDV"/>
    <trip id="HDV_365" depart="884" from="j3tj7" to="j12tj13" type="HDV"/>
    <trip id="CAV_366" depart="892" from="j14tj10" to="j6tj2" type="CAV"/>
    <trip id="HDV_367" depart="895" from="j8tj7" to="j5tj4" type="HDV"/>
    <trip id="HDV_368" depart="896" from="j2tj6" to="j12tj16" type="HDV"/>
    <trip id="CAV_369" depart="897" from="j16tj12" to="j5tj4" type="CAV"/>
    <trip id="HDV_370" depart="905" from="j13tj12" to="j5tj4" type="HDV"/>
    <trip id="HDV_371" depart="906" from="j9tj10" to="j7tj8" type="HDV"/>
    <trip id="CAV_372" depart="908" from="j1tj5" to="j10tj14" type="CAV"/>
    <trip id="HDV_373" depart="908" from="j1tj5" to="j11tj15" type="HDV"/>
    <trip id="HDV_374" depart="908" from="j9tj10" to="j7tj3" type="HDV"/>
    <trip id="CAV_375" depart="909" from="j4tj5" to="j6tj2" type="CAV"/>
    <trip id="HDV_376" depart="912" from="j2tj6" to="j7tj8" type="HDV"/>
    <trip id="HDV_377" depart="914" from="j1tj5" to="j10tj14" type="HDV"/>
    <trip id="CAV_378" depart="920" from="j9tj10" to="j6tj2" type="CAV"/>
    <trip id="HDV_379" depart="920" from="j4tj5" to="j6tj2" type="HDV"/>
    <trip id="HDV_380" depart="921" from="j13tj12" to="j10tj9" type="HDV"/>
    <trip id="CAV_381" depart="924" from="j15tj11" to="j10tj9" type="CAV"/>
    <trip id="HDV_382" depart="924" from="j16tj12" to="j10tj14" type="HDV"/>
    <trip id="HDV_383" depart="926" from="j4tj5" to="j7tj3" type="HDV"/>
    <trip id="CAV_384" depart="931" from="j4tj5" to="j10tj14" type="CAV"/>
    <trip id="HDV_385" depart="936" from="j15tj11" to="j10tj9" type="HDV"/>
    <trip id="HDV_386" depart="937" from="j13tj12" to="j7tj3" type="HDV"/>
    <trip id="CAV_387" depart="939" from="j1tj5" to="j12tj13" type="CAV"/>
    <trip id="HDV_388" depart="942" from="j16tj12" to="j7tj3" type="HDV"/>
    <trip id="HDV_389" depart="946" from="j9tj10" to="j12tj13" type="HDV"/>
    <trip id="CAV_390" depart="946" from="j16tj12" to="j7tj8" type="CAV"/>
    <trip id="HDV_391" depart="947" from="j16tj12" to="j5tj1" type="HDV"/>
    <trip id="HDV_392" depart="947" from="j8tj7" to="j6tj2" type="HDV"/>
    <trip id="CAV_393" depart="947" from="j3tj7" to="j10tj14" type="CAV"/>
    <trip id="HDV_394" depart="948" from="j16tj12" to="j7tj3" type="HDV"/>
    <trip id="HDV_395" depart="952" from="j13tj12" to="j6tj2" type="HDV"/>
    <trip id="CAV_396" depart="952" from="j2tj6" to="j12tj16" type="CAV"/>
    <trip id="HDV_397" depart="955" from="j16tj12" to="j7tj3" type="HDV"/>
    <trip id="HDV_398" depart="955" from="j13tj12" to="j7tj3" type="HDV"/>
    <trip id="CAV_399" depart="955" from="j9tj10" to="j7tj8" type="CAV"/>
    <trip id="HDV_400" depart="956" from="j2tj6" to="j10tj14" type="HDV"/>