<routes>
<vTypeDistribution id="typedist1">
    <vType id="CAV" length="4" />
    <vType id="HDV" length="4" />
</vTypeDistribution>
    <trip id="CAV_0" depart="0" from="j8tj7" to="j5tj4" type="CAV"/>
    <trip id="HDV_1" depart="7" from="j15tj11" to="j5tj1" type="HDV"/>
    <trip id="HDV_2" depart="10" from="j14tj10" to="j7tj3" type="HDV"/>
    <trip id="CAV_3" depart="10" from="j1tj5" to="j12tj13" type="CAV"/>
    <trip id="HDV_4" depart="14" from="j1tj5" to="j11tj15" type="HDV"/>
    <trip id="HDV_5" depart="15" from="j15tj11" to="j12tj13" type="HDV"/>
    <trip id="CAV_6" depart="16" from="j4tj5" to="j6tj2" type="CAV"/>
    <trip id="HDV_7" depart="42" from="j15tj11" to="j6tj2" type="HDV"/>
    <trip id="HDV_8" depart="42" from="j14tj10" to="j6tj2" type="HDV"/>
    <trip id="CAV_9" depart="47" from="j9tj10" to="j5tj4" type="CAV"/>
    <trip id="HDV_10" depart="49" from="j4tj5" to="j12tj16" type="HDV"/>
    <trip id="HDV_11" depart="56" from="j13tj12" to="j10tj14" type="HDV"/>
    <trip id="CAV_12" depart="58" from="j4tj5" to="j11tj15" type="CAV"/>
    <trip id="HDV_13" depart="64" from="j2tj6" to="j11tj15" type="HDV"/>
    <trip id="HDV_14" depart="68" from="j3tj7" to="j11tj15" type="HDV"/>
    <trip id="CAV_15" depart="74" from="j9tj10" to="j5tj4" type="CAV"/>
    <trip id="HDV_16" depart="77" from="j3tj7" to="j11tj15" type="HDV"/>
    <trip id="HDV_17" depart="85" from="j8tj7" to="j5tj1" type="HDV"/>
    <trip id="CAV_18" depart="87" from="j3tj7" to="j10tj9" type="CAV"/>
    <trip id="HDV_19" depart="89" from="j8tj7" to="j6tj2" type="HDV"/>
    <trip id="HDV_20" depart="89" from="j16tj12" to="j7tj3" type="HDV"/>
    <trip id="CAV_21" depart="91" from="j2tj6" to="j10tj9" type="CAV"/>
    <trip id="HDV_22" depart="93" from="j13tj12" to="j5tj4" type="HDV"/>
    <trip id="HDV_23" depart="95" from="j15tj11" to="j7tj3" type="HDV"/>
    <trip id="CAV_24" depart="102" from="j3tj7" to="j10tj14" type="CAV"/>
    <trip id="HDV_25" depart="106" from="j9tj10" to="j6tj2" type="HDV"/>
    <trip id="HDV_26" depart="112" from="j3tj7" to="j12tj16" type="HDV"/>
    <trip id="CAV_27" depart="116" from="j2tj6" to="j10tj14" type="CAV"/>
    <trip id="HDV_28" depart="129" from="j9tj10" to="j12tj13" type="HDV"/>
    <trip id="HDV_29" depart="132" from="j14tj10" to="j5tj1" type="HDV"/>
    <trip id="CAV_30" depart="134" from="j14tj10" to="j5tj1" type="CAV"/>
    <trip id="HDV_31" depart="134" from="j13tj12" to="j7tj3" type="HDV"/>
    <trip id="HDV_32" depart="134" from="j3tj7" to="j12tj16" type="HDV"/>
    <trip id="CAV_33" depart="140" from="j3tj7" to="j12tj13" type="CAV"/>
    <trip id="HDV_34" depart="146" from="j9tj10" to="j6tj2" type="HDV"/>
    <trip id="HDV_35" depart="149" from="j13tj12" to="j10tj14" type="HDV"/>
    <trip id="CAV_36" depart="151" from="j1tj5" to="j12tj13" type="CAV"/>
    <trip id="HDV_37" depart="155" from="j16tj12" to="j10tj14" type="HDV"/>
    <trip id="HDV_38" depart="156" from="j1tj5" to="j11tj15" type="HDV"/>
    <trip id="CAV_39" depart="164" from="j1tj5" to="j7tj8" type="CAV"/>
    <trip id="HDV_40" depart="164" from="j9tj10" to="j12tj16" type="HDV"/>
    <trip id="HDV_41" depart="176" from="j8tj7" to="j5tj1" type="HDV"/>
    <trip id="CAV_42" depart="180" from="j16tj12" to="j10tj14" type="CAV"/>
    <trip id="HDV_43" depart="181" from="j15tj11" to="j5tj4" type="HDV"/>
    <trip id="HDV_44" depart="184" from="j9tj10" to="j5tj1" type="HDV"/>
    <trip id="CAV_45" depart="188" from="j15tj11" to="j6tj2" type="CAV"/>
    <trip id="HDV_46" depart="203" from="j15tj11" to="j7tj3" type="HDV"/>
    <trip id="HDV_47" depart="209" from="j14tj10" to="j7tj3" type="HDV"/>
    <trip id="CAV_48" depart="216" from="j8tj7" to="j10tj9" type="CAV"/>
    <trip id="HDV_49" depart="226" from="j15tj11" to="j7tj8" type="HDV"/>
    <trip id="HDV_50" depart="228" from="j1tj5" to="j7tj8" type="HDV"/>
    <trip id="CAV_51" depart="231" from="j14tj10" to="j5tj4" type="CAV"/>
    <trip id="HDV_52" depart="232" from="j1tj5" to="j10tj14" type="HDV"/>
    <trip id="HDV_53" depart="234" from="j9tj10" to="j6tj2" type="HDV"/>
    <trip id="CAV_54" depart="243" from="j8tj7" to="j11tj15" type="CAV"/>
    <trip id="HDV_55" depart="248" from="j1tj5" to="j10tj9" type="HDV"/>
    <trip id="HDV_56" depart="253" from="j14tj10" to="j12tj16" type="HDV"/>
    <trip id="CAV_57" depart="271" from="j15tj11" to="j7tj8" type="CAV"/>
    <trip id="HDV_58" depart="280" from="j16tj12" to="j6tj2" type="HDV"/>
    <trip id="HDV_59" depart="280" from="j15tj11" to="j12tj13" type="HDV"/>
    <trip id="CAV_60" depart="281" from="j1tj5" to="j10tj9" type="CAV"/>
    <trip id="HDV_61" depart="282" from="j3tj7" to="j5tj1" type="HDV"/>
    <trip id="HDV_62" depart="302" from="j4tj5" to="j11tj15" type="HDV"/>
    <trip id="CAV_63" depart="306" from="j1tj5" to="j12tj13" type="CAV"/>
    <trip id="HDV_64" depart="315" from="j14tj10" to="j12tj16" type="HDV"/>
    <trip id="HDV_65" depart="317" from="j3tj7" to="j11tj15" type="HDV"/>
    <trip id="CAV_66" depart="327" from="j2tj6" to="j10tj14" type="CAV"/>
    <trip id="HDV_67" depart="330" from="j2tj6" to="j5tj4" type="HDV"/>
    <trip id="HDV_68" depart="331" from="j16tj12" to="j7tj3" type="HDV"/>
    <trip id="CAV_69" depart="336" from="j16tj12" to="j10tj14" type="CAV"/>
    <trip id="HDV_70" depart="338" from="j2tj6" to="j10tj14" type="HDV"/>
    <trip id="HDV_71" depart="343" from="j9tj10" to="j12tj16" type="HDV"/>
    <trip id="CAV_72" depart="344" from="j16tj12" to="j7tj3" type="CAV"/>
    <trip id="HDV_73" depart="349" from="j4tj5" to="j11tj15" type="HDV"/>
    <trip id="HDV_74" depart="351" from="j2tj6" to="j12tj13" type="HDV"/>
    <trip id="CAV_75" depart="353" from="j13tj12" to="j11tj15" type="CAV"/>
    <trip id="HDV_76" depart="357" from="j13tj12" to="j10tj14" type="HDV"/>
    <trip id="HDV_77" depart="357" from="j2tj6" to="j5tj4" type="HDV"/>
    <trip id="CAV_78" depart="358" from="j15tj11" to="j7tj8" type="CAV"/>
    <trip id="HDV_79" depart="360" from="j9tj10" to="j5tj4" type="HDV"/>
    <trip id="HDV_80" depart="364" from="j2tj6" to="j12tj16" type="HDV"/>
    <trip id="CAV_81" depart="366" from="j15tj11" to="j6tj2" type="CAV"/>
    <trip id="HDV_82" depart="370" from="j1tj5" to="j11tj15" type="HDV"/>
    <trip id="HDV_83" depart="373" from="j8tj7" to="j5tj4" type="HDV"/>
    <trip id="CAV_84" depart="379" from="j15tj11" to="j10tj9" type="CAV"/>
    <trip id="HDV_85" depart="381" from="j1tj5" to="j7tj3" type="HDV"/>
    <trip id="HDV_86" depart="382" from="j8tj7" to="j5tj1" type="HDV"/>
    <trip id="CAV_87" depart="386" from="j13tj12" to="j7tj3" type="CAV"/>
    <trip id="HDV_88" depart="395" from="j2tj6" to="j5tj4" type="HDV"/>
    <trip id="HDV_89" depart="400" from="j4tj5" to="j12tj16" type="HDV"/>
    <trip id="CAV_90" depart="403" from="j9tj10" to="j5tj4" type="CAV"/>
    <trip id="HDV_91" depart="405" from="j2tj6" to="j10tj9" type="HDV"/>
    <trip id="HDV_92" depart="412" from="j13tj12" to="j11tj15" type="HDV"/>
    <trip id="CAV_93" depart="412" from="j16tj12" to="j5tj4" type="CAV"/>
    <trip id="HDV_94" depart="431" from="j8tj7" to="j5tj4" type="HDV"/>
    <trip id="HDV_95" depart="434" from="j15tj11" to="j7tj3" type="HDV"/>
    <trip id="CAV_96" depart="447" from="j16tj12" to="j10tj14" type="CAV"/>
    <trip id="HDV_97" depart="464" from="j14tj10" to="j5tj1" type="HDV"/>
    <trip id="HDV_98" depart="481" from="j2tj6" to="j10tj9" type="HDV"/>
    <trip id="CAV_99" depart="484" from="j3tj7" to="j12tj16" type="CAV"/>
    <trip id="HDV_100" depart="487" from="j9tj10" to="j12tj16" type="HDV"/>
    <trip id="HDV_101" depart="489" from="j16tj12" to="j10tj9" type="HDV"/>
    <trip id="CAV_102" depart="489" from="j13tj12" to="j11tj15" type="CAV"/>
    <trip id="HDV_103" depart="492" from="j14tj10" to="j7tj8" type="HDV"/>
    <trip id="HDV_104" depart="494" from="j8tj7" to="j10tj14" type="HDV"/>
    <trip id="CAV_105" depart="498" from="j14tj10" to="j5tj4" type="CAV"/>
    <trip id="HDV_106" depart="499" from="j2tj6" to="j5tj4" type="HDV"/>
    <trip id="HDV_107" depart="515" from="j1tj5" to="j12tj16" type="HDV"/>
    <trip id="CAV_108" depart="527" from="j16tj12" to="j10tj14" type="CAV"/>
    <trip id="HDV_109" depart="538" from="j3tj7" to="j5tj1" type="HDV"/>
    <trip id="HDV_110" depart="541" from="j8tj7" to="j11tj15" type="HDV"/>
    <trip id="CAV_111" depart="546" from="j16tj12" to="j10tj14" type="CAV"/>
    <trip id="HDV_112" depart="567" from="j13tj12" to="j10tj14" type="HDV"/>
    <trip id="HDV_113" depart="568" from="j9tj10" to="j7tj8" type="HDV"/>
    <trip id="CAV_114" depart="573" from="j2tj6" to="j12tj16" type="CAV"/>
    <trip id="HDV_115" depart="576" from="j4tj5" to="j7tj8" type="HDV"/>
    <trip id="HDV_116" depart="577" from="j15tj11" to="j6tj2" type="HDV"/>
    <trip id="CAV_117" depart="583" from="j4tj5" to="j11tj15" type="CAV"/>
    <trip id="HDV_118" depart="596" from="j3tj7" to="j5tj1" type="HDV"/>
    <trip id="HDV_119" depart="598" from="j14tj10" to="j5tj4" type="HDV"/>
    <trip id="CAV_120" depart="599" from="j9tj10" to="j7tj8" type="CAV"/>
    <trip id="HDV_121" depart="601" from="j4tj5" to="j7tj8" type="HDV"/>
    <trip id="HDV_122" depart="601" from="j4tj5" to="j10tj14" type="HDV"/>
    <trip id="CAV_123" depart="607" from="j13tj12" to="j7tj3" type="CAV"/>
    <trip id="HDV_124" depart="615" from="j8tj7" to="j11tj15" type="HDV"/>
    <trip id="HDV_125" depart="624" from="j14tj10" to="j6tj2" type="HDV"/>
    <trip id="CAV_126" depart="632" from="j2tj6" to="j11tj15" type="CAV"/>
    <trip id="HDV_127" depart="635" from="j16tj12" to="j7tj8" type="HDV"/>
    <trip id="HDV_128" depart="636" from="j16tj12" to="j7tj3" type="HDV"/>
    <trip id="CAV_129" depart="637" from="j4tj5" to="j10tj9" type="CAV"/>
    <trip id="HDV_130" depart="638" from="j13tj12" to="j11tj15" type="HDV"/>
    <trip id="HDV_131" depart="639" from="j14tj10" to="j12tj16" type="HDV"/>
    <trip id="CAV_132" depart="641" from="j16tj12" to="j5tj4" type="CAV"/>
    <trip id="HDV_133" depart="650" from="j16tj12" to="j10tj14" type="HDV"/>
    <trip id="HDV_134" depart="654" from="j13tj12" to="j7tj3" type="HDV"/>
    <trip id="CAV_135" depart="655" from="j3tj7" to="j12tj13" type="CAV"/>
    <trip id="HDV_136" depart="657" from="j4tj5" to="j10tj14" type="HDV"/>
    <trip id="HDV_137" depart="660" from="j15tj11" to="j6tj2" type="HDV"/>
    <trip id="CAV_138" depart="661" from="j9tj10" to="j5tj1" type="CAV"/>
    <trip id="HDV_139" depart="665" from="j2tj6" to="j12tj13" type="HDV"/>
    <trip id="HDV_140" depart="665" from="j14tj10" to="j7tj3" type="HDV"/>
    <trip id="CAV_141" depart="666" from="j15tj11" to="j5tj1" type="CAV"/>
    <trip id="HDV_142" depart="668" from="j13tj12" to="j5tj4" type="HDV"/>
    <trip id="HDV_143" depart="671" from="j2tj6" to="j12tj13" type="HDV"/>
    <trip id="CAV_144" depart="676" from="j2tj6" to="j11tj15" type="CAV"/>
    <trip id="HDV_145" depart="679" from="j15tj11" to="j6tj2" type="HDV"/>
    <trip id="HDV_146" depart="684" from="j2tj6" to="j5tj4" type="HDV"/>
    <trip id="CAV_147" depart="686" from="j1tj5" to="j7tj3" type="CAV"/>
    <trip id="HDV_148" depart="699" from="j14tj10" to="j5tj1" type="HDV"/>
    <trip id="HDV_149" depart="699" from="j4tj5" to="j12tj13" type="HDV"/>
    <trip id="CAV_150" depart="702" from="j1tj5" to="j7tj3" type="CAV"/>
    <trip id="HDV_151" depart="708" from="j8tj7" to="j12tj16" type="HDV"/>
    <trip id="HDV_152" depart="712" from="j13tj12" to="j7tj3" type="HDV"/>
    <trip id="CAV_153" depart="718" from="j4tj5" to="j12tj13" type="CAV"/>
    <trip id="HDV_154" depart="722" from="j8tj7" to="j12tj16" type="HDV"/>
    <trip id="HDV_155" depart="733" from="j15tj11" to="j7tj3" type="HDV"/>
    <trip id="CAV_156" depart="733" from="j13tj12" to="j6tj2" type="CAV"/>
    <trip id="HDV_157" depart="741" from="j3tj7" to="j12tj16" type="HDV"/>
    <trip id="HDV_158" depart="745" from="j9tj10" to="j7tj3" type="HDV"/>
    <trip id="CAV_159" depart="752" from="j8tj7" to="j5tj1" type="CAV"/>
    <trip id="HDV_160" depart="761" from="j4tj5" to="j7tj3" type="HDV"/>
    <trip id="HDV_161" depart="764" from="j4tj5" to="j7tj8" type="HDV"/>
    <trip id="CAV_162" depart="766" from="j15tj11" to="j7tj8" type="CAV"/>
    <trip id="HDV_163" depart="773" from="j16tj12" to="j5tj1" type="HDV"/>
    <trip id="HDV_164" depart="774" from="j14tj10" to="j12tj13" type="HDV"/>
    <trip id="CAV_165" depart="782" from="j16tj12" to="j6tj2" type="CAV"/>
    <trip id="HDV_166" depart="788" from="j4tj5" to="j10tj9" type="HDV"/>
    <trip id="HDV_167" depart="789" from="j1tj5" to="j11tj15" type="HDV"/>
    <trip id="CAV_168" depart="797" from="j1tj5" to="j7tj8" type="CAV"/>
    <trip id="HDV_169" depart="801" from="j3tj7" to="j5tj4" type="HDV"/>
    <trip id="HDV_170" depart="802" from="j14tj10" to="j7tj8" type="HDV"/>
    <trip id="CAV_171" depart="806" from="j15tj11" to="j5tj1" type="CAV"/>
    <trip id="HDV_172" depart="808" from="j9tj10" to="j12tj16" type="HDV"/>
    <trip id="HDV_173" depart="808" from="j13tj12" to="j10tj9" type="HDV"/>
    <trip id="CAV_174" depart="815" from="j3tj7" to="j12tj16" type="CAV"/>
    <trip id="HDV_175" depart="817" from="j15tj11" to="j6tj2" type="HDV"/>
    <trip id="HDV_176" depart="822" from="j3tj7" to="j12tj13" type="HDV"/>
    <trip id="CAV_177" depart="826" from="j3tj7" to="j10tj9" type="CAV"/>
    <trip id="HDV_178" depart="826" from="j9tj10" to="j12tj16" type="HDV"/>
    <trip id="HDV_179" depart="836" from="j15tj11" to="j12tj13" type="HDV"/>
    <trip id="CAV_180" depart="841" from="j14tj10" to="j6tj2" type="CAV"/>
    <trip id="HDV_181" depart="841" from="j9tj10" to="j12tj16" type="HDV"/>
    <trip id="HDV_182" depart="844" from="j9tj10" to="j6tj2" type="HDV"/>
    <trip id="CAV_183" depart="846" from="j4tj5" to="j11tj15" type="CAV"/>
    <trip id="HDV_184" depart="848" from="j1tj5" to="j12tj13" type="HDV"/>
    <trip id="HDV_185" depart="848" from="j3tj7" to="j5tj4" type="HDV"/>
    <trip id="CAV_186" depart="853" from="j2tj6" to="j12tj13" type="CAV"/>
    <trip id="HDV_187" depart="855" from="j1tj5" to="j7tj8" type="HDV"/>
    <trip id="HDV_188" depart="859" from="j14tj10" to="j5tj4" type="HDV"/>
    <trip id="CAV_189" depart="860" from="j14tj10" to="j12tj16" type="CAV"/>
    <trip id="HDV_190" depart="861" from="j9tj10" to="j12tj16" type="HDV"/>
    <trip id="HDV_191" depart="868" from="j13tj12" to="j10tj9" type="HDV"/>
    <trip id="CAV_192" depart="869" from="j4tj5" to="j6tj2" type="CAV"/>
    <trip id="HDV_193" depart="877" from="j13tj12" to="j10tj9" type="HDV"/>
    <trip id="HDV_194" depart="893" from="j13tj12" to="j10tj14" type="HDV"/>
    <trip id="CAV_195" depart="893" from="j9tj10" to="j12tj16" type="CAV"/>
    <trip id="HDV_196" depart="894" from="j4tj5" to="j12tj16" type="HDV"/>
    <trip id="HDV_197" depart="894" from="j16tj12" to="j5tj1" type="HDV"/>
    <trip id="CAV_198" depart="899" from="j3tj7" to="j5tj4" type="CAV"/>
    <trip id="HDV_199" depart="900" from="j15tj11" to="j7tj3" type="HDV"/>
    <trip id="HDV_200" depart="905" from="j3tj7" to="j10tj9" type="HDV"/>
    <trip id="CAV_201" depart="914" from="j8tj7" to="j5tj1" type="CAV"/>
    <trip id="HDV_202" depart="921" from="j16tj12" to="j6tj2" type="HDV"/>
    <trip id="HDV_203" depart="921" from="j3tj7" to="j10tj14" type="HDV"/>
    <trip id="CAV_204" depart="923" from="j13tj12" to="j5tj4" type="CAV"/>
    <trip id="HDV_205" depart="927" from="j15tj11" to="j7tj8" type="HDV"/>
    <trip id="HDV_206" depart="946" from="j14tj10" to="j7tj8" type="HDV"/>
    <trip id="CAV_207" depart="951" from="j4tj5" to="j12tj16" type="CAV"/>
    <trip id="HDV_208" depart="953" from="j13tj12" to="j7tj3" type="HDV"/>
    <trip id="HDV_209" depart="957" from="j4tj5" to="j10tj9" type="HDV"/>
    <trip id="CAV_210" depart="959" from="j15tj11" to="j6tj2" type="CAV"/>
    <trip id="HDV_211" depart="974" from="j4tj5" to="j12tj13" type="HDV"/>
    <trip id="HDV_212" depart="977" from="j1tj5" to="j10tj9" type="HDV"/>
    <trip id="CAV_213" depart="978" from="j1tj5" to="j7tj8" type="CAV"/>
    <trip id="HDV_214" depart="979" from="j13tj12" to="j7tj3" type="HDV"/>
    <trip id="HDV_215" depart="979" from="j2tj6" to="j10tj14" type="HDV"/>
    <trip id="CAV_216" depart="985" from="j3tj7" to="j11tj15" type="CAV"/>
    <trip id="HDV_217" depart="991" from="j8tj7" to="j10tj14" type="HDV"/>
    <trip id="HDV_218" depart="999" from="j3tj7" to="j10tj9" type="HDV"/>
    <trip id="CAV_219" depart="1010" from="j15tj11" to="j7tj3" type="CAV"/>
    <trip id="HDV_220" depart="1011" from="j1tj5" to="j7tj3" type="HDV"/>
    <trip id="HDV_221" depart="1021" from="j14tj10" to="j5tj1" type="HDV"/>
    <trip id="CAV_222" depart="1023" from="j16tj12" to="j6tj2" type="CAV"/>
    <trip id="HDV_223" depart="1025" from="j16tj12" to="j5tj1" type="HDV"/>
    <trip id="HDV_224" depart="1029" from="j8tj7" to="j5tj4" type="HDV"/>
    <trip id="CAV_225" depart="1033" from="j1tj5" to="j7tj8" type="CAV"/>
    <trip id="HDV_226" depart="1036" from="j8tj7" to="j12tj16" type="HDV"/>
    <trip id="HDV_227" depart="1051" from="j13tj12" to="j6tj2" type="HDV"/>
    <trip id="CAV_228" depart="1062" from="j9tj10" to="j11tj15" type="CAV"/>
    <trip id="HDV_229" depart="1063" from="j15tj11" to="j5tj4" type="HDV"/>
    <trip id="HDV_230" depart="1068" from="j15tj11" to="j10tj9" type="HDV"/>
    <trip id="CAV_231" depart="1069" from="j14tj10" to="j7tj8" type="CAV"/>
    <trip id="HDV_232" depart="1069" from="j3tj7" to="j10tj14" type="HDV"/>
    <trip id="HDV_233" depart="1071" from="j15tj11" to="j7tj3" type="HDV"/>
    <trip id="CAV_234" depart="1076" from="j2tj6" to="j11tj15" type="CAV"/>
    <trip id="HDV_235" depart="1076" from="j16tj12" to="j10tj9" type="HDV"/>
    <trip id="HDV_236" depart="1082" from="j16tj12" to="j6tj2" type="HDV"/>
    <trip id="CAV_237" depart="1089" from="j2tj6" to="j7tj8" type="CAV"/>
    <trip id="HDV_238" depart="1090" from="j8tj7" to="j5tj4" type="HDV"/>
    <trip id="HDV_239" depart="1093" from="j3tj7" to="j12tj13" type="HDV"/>
    <trip id="CAV_240" depart="1098" from="j14tj10" to="j5tj4" type="CAV"/>
    <trip id="HDV_241" depart="1106" from="j13tj12" to="j11tj15" type="HDV"/>
    <trip id="HDV_242" depart="1108" from="j9tj10" to="j7tj8" type="HDV"/>
    <trip id="CAV_243" depart="1111" from="j16tj12" to="j7tj3" type="CAV"/>
    <trip id="HDV_244" depart="1125" from="j13tj12" to="j5tj4" type="HDV"/>
    <trip id="HDV_245" depart="1127" from="j13tj12" to="j5tj1" type="HDV"/>
    <trip id="CAV_246" depart="1141" from="j13tj12" to="j11tj15" type="CAV"/>
    <trip id="HDV_247" depart="1141" from="j9tj10" to="j11tj15" type="HDV"/>
    <trip id="HDV_248" depart="1141" from="j2tj6" to="j11tj15" type="HDV"/>
    <trip id="CAV_249" depart="1147" from="j15tj11" to="j5tj4" type="CAV"/>
    <trip id="HDV_250" depart="1153" from="j2tj6" to="j10tj9" type="HDV"/>
    <trip id="HDV_251" depart="1156" from="j15tj11" to="j5tj4" type="HDV"/>
    <trip id="CAV_252" depart="1162" from="j4tj5" to="j10tj14" type="CAV"/>
    <trip id="HDV_253" depart="1172" from="j13tj12" to="j7tj3" type="HDV"/>
    <trip id="HDV_254" depart="1176" from="j13tj12" to="j10tj14" type="HDV"/>
    <trip id="CAV_255" depart="1182" from="j3tj7" to="j10tj9" type="CAV"/>
    <trip id="HDV_256" depart="1182" from="j9tj10" to="j12tj16" type="HDV"/>
    <trip id="HDV_257" depart="1182" from="j13tj12" to="j11tj15" type="HDV"/>
    <trip id="CAV_258" depart="1184" from="j3tj7" to="j12tj16" type="CAV"/>
    <trip id="HDV_259" depart="1186" from="j15tj11" to="j5tj4" type="HDV"/>
    <trip id="HDV_260" depart="1187" from="j4tj5" to="j10tj14" type="HDV"/>
    <trip id="CAV_261" depart="1192" from="j8tj7" to="j10tj14" type="CAV"/>
    <trip id="HDV_262" depart="1196" from="j3tj7" to="j11tj15" type="HDV"/>
    <trip id="HDV_263" depart="1198" from="j13tj12" to="j10tj14" type="HDV"/>
    <trip id="CAV_264" depart="1203" from="j1tj5" to="j10tj14" type="CAV"/>
    <trip id="HDV_265" depart="1204" from="j16tj12" to="j10tj9" type="HDV"/>
    <trip id="HDV_266" depart="1211" from="j3tj7" to="j10tj9" type="HDV"/>
    <trip id="CAV_267" depart="1217" from="j4tj5" to="j7tj3" type="CAV"/>
    <trip id="HDV_268" depart="1224" from="j8tj7" to="j5tj4" type="HDV"/>
    <trip id="HDV_269" depart="1224" from="j3tj7" to="j10tj14" type="HDV"/>
    <trip id="CAV_270" depart="1230" from="j8tj7" to="j5tj1" type="CAV"/>
    <trip id="HDV_271" depart="1234" from="j15tj11" to="j6tj2" type="HDV"/>
    <trip id="HDV_272" depart="1242" from="j13tj12" to="j11tj15" type="HDV"/>
    <trip id="CAV_273" depart="1245" from="j2tj6" to="j7tj8" type="CAV"/>
    <trip id="HDV_274" depart="1254" from="j1tj5" to="j11tj15" type="HDV"/>
    <trip id="HDV_275" depart="1257" from="j1tj5" to="j11tj15" type="HDV"/>
    <trip id="CAV_276" depart="1262" from="j2tj6" to="j12tj16" type="CAV"/>
    <trip id="HDV_277" depart="1264" from="j1tj5" to="j7tj8" type="HDV"/>
    <trip id="HDV_278" depart="1272" from="j16tj12" to="j6tj2" type="HDV"/>
    <trip id="CAV_279" depart="1274" from="j13tj12" to="j10tj9" type="CAV"/>
    <trip id="HDV_280" depart="1277" from="j9tj10" to="j11tj15" type="HDV"/>
    <trip id="HDV_281" depart="1280" from="j9tj10" to="j6tj2" type="HDV"/>
    <trip id="CAV_282" depart="1283" from="j14tj10" to="j5tj4" type="CAV"/>
    <trip id="HDV_283" depart="1292" from="j15tj11" to="j12tj13" type="HDV"/>
    <trip id="HDV_284" depart="1294" from="j4tj5" to="j10tj14" type="HDV"/>
    <trip id="CAV_285" depart="1294" from="j14tj10" to="j5tj4" type="CAV"/>
    <trip id="HDV_286" depart="1300" from="j13tj12" to="j10tj14" type="HDV"/>
    <trip id="HDV_287" depart="1300" from="j4tj5" to="j7tj8" type="HDV"/>
    <trip id="CAV_288" depart="1304" from="j13tj12" to="j10tj9" type="CAV"/>
    <trip id="HDV_289" depart="1308" from="j1tj5" to="j12tj13" type="HDV"/>
    <trip id="HDV_290" depart="1319" from="j8tj7" to="j10tj14" type="HDV"/>
    <trip id="CAV_291" depart="1333" from="j15tj11" to="j6tj2" type="CAV"/>
    <trip id="HDV_292" depart="1333" from="j15tj11" to="j6tj2" type="HDV"/>
    <trip id="HDV_293" depart="1340" from="j14tj10" to="j12tj16" type="HDV"/>
    <trip id="CAV_294" depart="1352" from="j9tj10" to="j11tj15" type="CAV"/>
    <trip id="HDV_295" depart="1356" from="j3tj7" to="j11tj15" type="HDV"/>
    <trip id="HDV_296" depart="1358" from="j8tj7" to="j10tj14" type="HDV"/>
    <trip id="CAV_297" depart="1369" from="j13tj12" to="j5tj4" type="CAV"/>
    <trip id="HDV_298" depart="1372" from="j8tj7" to="j10tj14" type="HDV"/>
    <trip id="HDV_299" depart="1377" from="j15tj11" to="j7tj8" type="HDV"/>
    <trip id="CAV_300" depart="1378" from="j13tj12" to="j10tj14" type="CAV"/>
    <trip id="HDV_301" depart="1393" from="j3tj7" to="j12tj13" type="HDV"/>
    <trip id="HDV_302" depart="1402" from="j14tj10" to="j7tj3" type="HDV"/>
    <trip id="CAV_303" depart="1402" from="j14tj10" to="j5tj1" type="CAV"/>
    <trip id="HDV_304" depart="1406" from="j16tj12" to="j5tj1" type="HDV"/>
    <trip id="HDV_305" depart="1411" from="j2tj6" to="j10tj9" type="HDV"/>
    <trip id="CAV_306" depart="1416" from="j15tj11" to="j5tj4" type="CAV"/>
    <trip id="HDV_307" depart="1416" from="j14tj10" to="j6tj2" type="HDV"/>
    <trip id="HDV_308" depart="1418" from="j3tj7" to="j5tj1" type="HDV"/>
    <trip id="CAV_309" depart="1418" from="j13tj12" to="j6tj2" type="CAV"/>
    <trip id="HDV_310" depart="1420" from="j16tj12" to="j7tj8" type="HDV"/>
    <trip id="HDV_311" depart="1422" from="j3tj7" to="j11tj15" type="HDV"/>
    <trip id="CAV_312" depart="1423" from="j4tj5" to="j7tj3" type="CAV"/>
    <trip id="HDV_313" depart="1427" from="j3tj7" to="j10tj9" type="HDV"/>
    <trip id="HDV_314" depart="1440" from="j14tj10" to="j5tj1" type="HDV"/>
    <trip id="CAV_315" depart="1440" from="j1tj5" to="j12tj16" type="CAV"/>
    <trip id="HDV_316" depart="1440" from="j16tj12" to="j10tj14" type="HDV"/>
    <trip id="HDV_317" depart="1443" from="j14tj10" to="j7tj3" type="HDV"/>
    <trip id="CAV_318" depart="1446" from="j16tj12" to="j7tj3" type="CAV"/>
    <trip id="HDV_319" depart="1452" from="j13tj12" to="j10tj14" type="HDV"/>
    <trip id="HDV_320" depart="1452" from="j14tj10" to="j7tj8" type="HDV"/>
    <trip id="CAV_321" depart="1464" from="j15tj11" to="j5tj1" type="CAV"/>
    <trip id="HDV_322" depart="1465" from="j14tj10" to="j7tj3" type="HDV"/>
    <trip id="HDV_323" depart="1475" from="j14tj10" to="j7tj3" type="HDV"/>
    <trip id="CAV_324" depart="1476" from="j1tj5" to="j11tj15" type="CAV"/>
    <trip id="HDV_325" depart="1477" from="j4tj5" to="j6tj2" type="HDV"/>
    <trip id="HDV_326" depart="1479" from="j1tj5" to="j7tj8" type="HDV"/>
    <trip id="CAV_327" depart="1483" from="j1tj5" to="j7tj8" type="CAV"/>
    <trip id="HDV_328" depart="1487" from="j2tj6" to="j7tj8" type="HDV"/>
    <trip id="HDV_329" depart="1489" from="j14tj10" to="j7tj8" type="HDV"/>
    <trip id="CAV_330" depart="1495" from="j3tj7" to="j10tj14" type="CAV"/>
    <trip id="HDV_331" depart="1514" from="j15tj11" to="j7tj3" type="HDV"/>
    <trip id="HDV_332" depart="1523" from="j2tj6" to="j5tj4" type="HDV"/>
    <trip id="CAV_333" depart="1527" from="j4tj5" to="j7tj3" type="CAV"/>
    <trip id="HDV_334" depart="1534" from="j1tj5" to="j10tj9" type="HDV"/>
    <trip id="HDV_335" depart="1545" from="j15tj11" to="j7tj3" type="HDV"/>
    <trip id="CAV_336" depart="1546" from="j15tj11" to="j5tj4" type="CAV"/>
    <trip id="HDV_337" depart="1550" from="j13tj12" to="j10tj9" type="HDV"/>
    <trip id="HDV_338" depart="1553" from="j2tj6" to="j12tj16" type="HDV"/>
    <trip id="CAV_339" depart="1557" from="j9tj10" to="j7tj8" type="CAV"/>
    <trip id="HDV_340" depart="1567" from="j9tj10" to="j7tj3" type="HDV"/>
    <trip id="HDV_341" depart="1577" from="j2tj6" to="j5tj4" type="HDV"/>
    <trip id="CAV_342" depart="1583" from="j9tj10" to="j5tj1" type="CAV"/>
    <trip id="HDV_343" depart="1592" from="j2tj6" to="j10tj14" type="HDV"/>
    <trip id="HDV_344" depart="1599" from="j4tj5" to="j7tj3" type="HDV"/>
    <trip id="CAV_345" depart="1605" from="j14tj10" to="j12tj13" type="CAV"/>
    <trip id="HDV_346" depart="1605" from="j13tj12" to="j7tj3" type="HDV"/>
    <trip id="HDV_347" depart="1609" from="j15tj11" to="j6tj2" type="HDV"/>
    <trip id="CAV_348" depart="1614" from="j4tj5" to="j7tj8" type="CAV"/>
    <trip id="HDV_349" depart="1617" from="j8tj7" to="j10tj14" type="HDV"/>
    <trip id="HDV_350" depart="1621" from="j16tj12" to="j7tj8" type="HDV"/>
    <trip id="CAV_351" depart="1629" from="j14tj10" to="j5tj1" type="CAV"/>
    <trip id="HDV_352" depart="1632" from="j15tj11" to="j5tj4" type="HDV"/>
    <trip id="HDV_353" depart="1637" from="j9tj10" to="j7tj8" type="HDV"/>
    <trip id="CAV_354" depart="1640" from="j2tj6" to="j12tj13" type="CAV"/>
    <trip id="HDV_355" depart="1644" from="j8tj7" to="j11tj15" type="HDV"/>
    <trip id="HDV_356" depart="1644" from="j13tj12" to="j11tj15" type="HDV"/>
    <trip id="CAV_357" depart="1646" from="j13tj12" to="j6tj2" type="CAV"/>
    <trip id="HDV_358" depart="1650" from="j4tj5" to="j10tj9" type="HDV"/>
    <trip id="HDV_359" depart="1655" from="j8tj7" to="j5tj1" type="HDV"/>
    <trip id="CAV_360" depart="1657" from="j16tj12" to="j6tj2" type="CAV"/>
    <trip id="HDV_361" depart="1665" from="j14tj10" to="j12tj13" type="HDV"/>
    <trip id="HDV_362" depart="1672" from="j2tj6" to="j7tj8" type="HDV"/>
    <trip id="CAV_363" depart="1682" from="j3tj7" to="j12tj16" type="CAV"/>
    <trip id="HDV_364" depart="1683" from="j1tj5" to="j7tj8" type="HDV"/>
    <trip id="HDV_365" depart="1687" from="j8tj7" to="j6tj2" type="HDV"/>
    <trip id="CAV_366" depart="1697" from="j2tj6" to="j7tj8" type="CAV"/>
    <trip id="HDV_367" depart="1699" from="j9tj10" to="j7tj3" type="HDV"/>
    <trip id="HDV_368" depart="1705" from="j14tj10" to="j7tj3" type="HDV"/>
    <trip id="CAV_369" depart="1707" from="j14tj10" to="j6tj2" type="CAV"/>
    <trip id="HDV_370" depart="1714" from="j2tj6" to="j7tj8" type="HDV"/>
    <trip id="HDV_371" depart="1731" from="j2tj6" to="j10tj9" type="HDV"/>
    <trip id="CAV_372" depart="1736" from="j1tj5" to="j12tj16" type="CAV"/>
    <trip id="HDV_373" depart="1741" from="j1tj5" to="j12tj13" type="HDV"/>
    <trip id="HDV_374" depart="1741" from="j4tj5" to="j7tj8" type="HDV"/>
    <trip id="CAV_375" depart="1746" from="j4tj5" to="j10tj9" type="CAV"/>
    <trip id="HDV_376" depart="1747" from="j16tj12" to="j5tj4" type="HDV"/>
    <trip id="HDV_377" depart="1750" from="j4tj5" to="j7tj3" type="HDV"/>
    <trip id="CAV_378" depart="1766" from="j4tj5" to="j7tj8" type="CAV"/>
    <trip id="HDV_379" depart="1771" from="j13tj12" to="j6tj2" type="HDV"/>
    <trip id="HDV_380" depart="1772" from="j9tj10" to="j11tj15" type="HDV"/>
    <trip id="CAV_381" depart="1774" from="j14tj10" to="j7tj8" type="CAV"/>
    <trip id="HDV_382" depart="1778" from="j3tj7" to="j10tj9" type="HDV"/>
    <trip id="HDV_383" depart="1788" from="j2tj6" to="j11tj15" type="HDV"/>
    <trip id="CAV_384" depart="1794" from="j4tj5" to="j7tj3" type="CAV"/>
    <trip id="HDV_385" depart="1798" from="j16tj12" to="j7tj8" type="HDV"/>
    <trip id="HDV_386" depart="1798" from="j15tj11" to="j6tj2" type="HDV"/>
    <trip id="CAV_387" depart="1804" from="j8tj7" to="j6tj2" type="CAV"/>
    <trip id="HDV_388" depart="1806" from="j4tj5" to="j11tj15" type="HDV"/>
    <trip id="HDV_389" depart="1806" from="j9tj10" to="j7tj3" type="HDV"/>
    <trip id="CAV_390" depart="1807" from="j2tj6" to="j11tj15" type="CAV"/>
    <trip id="HDV_391" depart="1810" from="j14tj10" to="j6tj2" type="HDV"/>
    <trip id="HDV_392" depart="1812" from="j9tj10" to="j5tj4" type="HDV"/>
    <trip id="CAV_393" depart="1814" from="j1tj5" to="j12tj16" type="CAV"/>
    <trip id="HDV_394" depart="1820" from="j3tj7" to="j10tj9" type="HDV"/>
    <trip id="HDV_395" depart="1822" from="j14tj10" to="j6tj2" type="HDV"/>
    <trip id="CAV_396" depart="1824" from="j2tj6" to="j12tj16" type="CAV"/>
    <trip id="HDV_397" depart="1831" from="j9tj10" to="j5tj4" type="HDV"/>