<?xml version="1.0" encoding="UTF-8"?>

<!-- generated on 2025-04-09 15:36:15 by Eclipse SUMO duarouter Version 1.22.0
<duarouterConfiguration xmlns:xsi="http://www.w3.org/2001/XMLSchema-instance" xsi:noNamespaceSchemaLocation="http://sumo.dlr.de/xsd/duarouterConfiguration.xsd">

    <input>
        <net-file value="Map_new.net.xml"/>
        <route-files value="custom_gaussian.trips.xml"/>
    </input>

    <output>
        <output-file value="Gaussian.rou.xml"/>
    </output>

</duarouterConfiguration>
-->

<routes xmlns:xsi="http://www.w3.org/2001/XMLSchema-instance" xsi:noNamespaceSchemaLocation="http://sumo.dlr.de/xsd/routes_file.xsd">
    <vType id="CAV" length="4.00"/>
    <vehicle id="CAV_0" type="CAV" depart="0.00">
        <route edges="j8tj7 j7tj6 j6tj5 j5tj4"/>
    </vehicle>
    <vType id="HDV" length="4.00"/>
    <vehicle id="HDV_1" type="HDV" depart="7.00">
        <route edges="j15tj11 j11tj6 j6tj5 j5tj1"/>
    </vehicle>
    <vehicle id="HDV_2" type="HDV" depart="10.00">
        <route edges="j14tj10 j10tj5 j5tj6 j6tj7 j7tj3"/>
    </vehicle>
    <vehicle id="CAV_3" type="CAV" depart="10.00">
        <route edges="j1tj5 j5tj10 j10tj11 j11tj12 j12tj13"/>
    </vehicle>
    <vehicle id="HDV_4" type="HDV" depart="14.00">
        <route edges="j1tj5 j5tj6 j6tj11 j11tj15"/>
    </vehicle>
    <vehicle id="HDV_5" type="HDV" depart="15.00">
        <route edges="j15tj11 j11tj12 j12tj13"/>
    </vehicle>
    <vehicle id="CAV_6" type="CAV" depart="16.00">
        <route edges="j4tj5 j5tj6 j6tj2"/>
    </vehicle>
    <vehicle id="HDV_7" type="HDV" depart="42.00">
        <route edges="j15tj11 j11tj6 j6tj2"/>
    </vehicle>
    <vehicle id="HDV_8" type="HDV" depart="42.00">
        <route edges="j14tj10 j10tj11 j11tj6 j6tj2"/>
    </vehicle>
    <vehicle id="CAV_9" type="CAV" depart="47.00">
        <route edges="j9tj10 j10tj5 j5tj4"/>
    </vehicle>
    <vehicle id="HDV_10" type="HDV" depart="49.00">
        <route edges="j4tj5 j5tj6 j6tj7 j7tj12 j12tj16"/>
    </vehicle>
    <vehicle id="HDV_11" type="HDV" depart="56.00">
        <route edges="j13tj12 j12tj11 j11tj10 j10tj14"/>
    </vehicle>
    <vehicle id="CAV_12" type="CAV" depart="58.00">
        <route edges="j4tj5 j5tj6 j6tj11 j11tj15"/>
    </vehicle>
    <vehicle id="HDV_13" type="HDV" depart="64.00">
        <route edges="j2tj6 j6tj11 j11tj15"/>
    </vehicle>
    <vehicle id="HDV_14" type="HDV" depart="68.00">
        <route edges="j3tj7 j7tj6 j6tj11 j11tj15"/>
    </vehicle>
    <vehicle id="CAV_15" type="CAV" depart="74.00">
        <route edges="j9tj10 j10tj5 j5tj4"/>
    </vehicle>
    <vehicle id="HDV_16" type="HDV" depart="77.00">
        <route edges="j3tj7 j7tj6 j6tj11 j11tj15"/>
    </vehicle>
    <vehicle id="HDV_17" type="HDV" depart="85.00">
        <route edges="j8tj7 j7tj6 j6tj5 j5tj1"/>
    </vehicle>
    <vehicle id="CAV_18" type="CAV" depart="87.00">
        <route edges="j3tj7 j7tj12 j12tj11 j11tj10 j10tj9"/>
    </vehicle>
    <vehicle id="HDV_19" type="HDV" depart="89.00">
        <route edges="j8tj7 j7tj6 j6tj2"/>
    </vehicle>
    <vehicle id="HDV_20" type="HDV" depart="89.00">
        <route edges="j16tj12 j12tj7 j7tj3"/>
    </vehicle>
    <vehicle id="CAV_21" type="CAV" depart="91.00">
        <route edges="j2tj6 j6tj11 j11tj10 j10tj9"/>
    </vehicle>
    <vehicle id="HDV_22" type="HDV" depart="93.00">
        <route edges="j13tj12 j12tj7 j7tj6 j6tj5 j5tj4"/>
    </vehicle>
    <vehicle id="HDV_23" type="HDV" depart="95.00">
        <route edges="j15tj11 j11tj6 j6tj7 j7tj3"/>
    </vehicle>
    <vehicle id="CAV_24" type="CAV" depart="102.00">
        <route edges="j3tj7 j7tj6 j6tj5 j5tj10 j10tj14"/>
    </vehicle>
    <vehicle id="HDV_25" type="HDV" depart="106.00">
        <route edges="j9tj10 j10tj11 j11tj6 j6tj2"/>
    </vehicle>
    <vehicle id="HDV_26" type="HDV" depart="112.00">
        <route edges="j3tj7 j7tj12 j12tj16"/>
    </vehicle>
    <vehicle id="CAV_27" type="CAV" depart="116.00">
        <route edges="j2tj6 j6tj11 j11tj10 j10tj14"/>
    </vehicle>
    <vehicle id="HDV_28" type="HDV" depart="129.00">
        <route edges="j9tj10 j10tj11 j11tj12 j12tj13"/>
    </vehicle>
    <vehicle id="HDV_29" type="HDV" depart="132.00">
        <route edges="j14tj10 j10tj5 j5tj1"/>
    </vehicle>
    <vehicle id="CAV_30" type="CAV" depart="134.00">
        <route edges="j14tj10 j10tj5 j5tj1"/>
    </vehicle>
    <vehicle id="HDV_31" type="HDV" depart="134.00">
        <route edges="j13tj12 j12tj7 j7tj3"/>
    </vehicle>
    <vehicle id="HDV_32" type="HDV" depart="134.00">
        <route edges="j3tj7 j7tj12 j12tj16"/>
    </vehicle>
    <vehicle id="CAV_33" type="CAV" depart="140.00">
        <route edges="j3tj7 j7tj12 j12tj13"/>
    </vehicle>
    <vehicle id="HDV_34" type="HDV" depart="146.00">
        <route edges="j9tj10 j10tj11 j11tj6 j6tj2"/>
    </vehicle>
    <vehicle id="HDV_35" type="HDV" depart="149.00">
        <route edges="j13tj12 j12tj11 j11tj10 j10tj14"/>
    </vehicle>
    <vehicle id="CAV_36" type="CAV" depart="151.00">
        <route edges="j1tj5 j5tj10 j10tj11 j11tj12 j12tj13"/>
    </vehicle>
    <vehicle id="HDV_37" type="HDV" depart="155.00">
        <route edges="j16tj12 j12tj11 j11tj10 j10tj14"/>
    </vehicle>
    <vehicle id="HDV_38" type="HDV" depart="156.00">
        <route edges="j1tj5 j5tj6 j6tj11 j11tj15"/>
    </vehicle>
    <vehicle id="CAV_39" type="CAV" depart="164.00">
        <route edges="j1tj5 j5tj6 j6tj7 j7tj8"/>
    </vehicle>
    <vehicle id="HDV_40" type="HDV" depart="164.00">
        <route edges="j9tj10 j10tj11 j11tj12 j12tj16"/>
    </vehicle>
    <vehicle id="HDV_41" type="HDV" depart="176.00">
        <route edges="j8tj7 j7tj6 j6tj5 j5tj1"/>
    </vehicle>
    <vehicle id="CAV_42" type="CAV" depart="180.00">
        <route edges="j16tj12 j12tj11 j11tj10 j10tj14"/>
    </vehicle>
    <vehicle id="HDV_43" type="HDV" depart="181.00">
        <route edges="j15tj11 j11tj6 j6tj5 j5tj4"/>
    </vehicle>
    <vehicle id="HDV_44" type="HDV" depart="184.00">
        <route edges="j9tj10 j10tj5 j5tj1"/>
    </vehicle>
    <vehicle id="CAV_45" type="CAV" depart="188.00">
        <route edges="j15tj11 j11tj6 j6tj2"/>
    </vehicle>
    <vehicle id="HDV_46" type="HDV" depart="203.00">
        <route edges="j15tj11 j11tj6 j6tj7 j7tj3"/>
    </vehicle>
    <vehicle id="HDV_47" type="HDV" depart="209.00">
        <route edges="j14tj10 j10tj5 j5tj6 j6tj7 j7tj3"/>
    </vehicle>
    <vehicle id="CAV_48" type="CAV" depart="216.00">
        <route edges="j8tj7 j7tj6 j6tj11 j11tj10 j10tj9"/>
    </vehicle>
    <vehicle id="HDV_49" type="HDV" depart="226.00">
        <route edges="j15tj11 j11tj6 j6tj7 j7tj8"/>
    </vehicle>
    <vehicle id="HDV_50" type="HDV" depart="228.00">
        <route edges="j1tj5 j5tj6 j6tj7 j7tj8"/>
    </vehicle>
    <vehicle id="CAV_51" type="CAV" depart="231.00">
        <route edges="j14tj10 j10tj5 j5tj4"/>
    </vehicle>
    <vehicle id="HDV_52" type="HDV" depart="232.00">
        <route edges="j1tj5 j5tj10 j10tj14"/>
    </vehicle>
    <vehicle id="HDV_53" type="HDV" depart="234.00">
        <route edges="j9tj10 j10tj11 j11tj6 j6tj2"/>
    </vehicle>
    <vehicle id="CAV_54" type="CAV" depart="243.00">
        <route edges="j8tj7 j7tj6 j6tj11 j11tj15"/>
    </vehicle>
    <vehicle id="HDV_55" type="HDV" depart="248.00">
        <route edges="j1tj5 j5tj10 j10tj9"/>
    </vehicle>
    <vehicle id="HDV_56" type="HDV" depart="253.00">
        <route edges="j14tj10 j10tj11 j11tj12 j12tj16"/>
    </vehicle>
    <vehicle id="CAV_57" type="CAV" depart="271.00">
        <route edges="j15tj11 j11tj6 j6tj7 j7tj8"/>
    </vehicle>
    <vehicle id="HDV_58" type="HDV" depart="280.00">
        <route edges="j16tj12 j12tj7 j7tj6 j6tj2"/>
    </vehicle>
    <vehicle id="HDV_59" type="HDV" depart="280.00">
        <route edges="j15tj11 j11tj12 j12tj13"/>
    </vehicle>
    <vehicle id="CAV_60" type="CAV" depart="281.00">
        <route edges="j1tj5 j5tj10 j10tj9"/>
    </vehicle>
    <vehicle id="HDV_61" type="HDV" depart="282.00">
        <route edges="j3tj7 j7tj6 j6tj5 j5tj1"/>
    </vehicle>
    <vehicle id="HDV_62" type="HDV" depart="302.00">
        <route edges="j4tj5 j5tj6 j6tj11 j11tj15"/>
    </vehicle>
    <vehicle id="CAV_63" type="CAV" depart="306.00">
        <route edges="j1tj5 j5tj10 j10tj11 j11tj12 j12tj13"/>
    </vehicle>
    <vehicle id="HDV_64" type="HDV" depart="315.00">
        <route edges="j14tj10 j10tj11 j11tj12 j12tj16"/>
    </vehicle>
    <vehicle id="HDV_65" type="HDV" depart="317.00">
        <route edges="j3tj7 j7tj6 j6tj11 j11tj15"/>
    </vehicle>
    <vehicle id="CAV_66" type="CAV" depart="327.00">
        <route edges="j2tj6 j6tj11 j11tj10 j10tj14"/>
    </vehicle>
    <vehicle id="HDV_67" type="HDV" depart="330.00">
        <route edges="j2tj6 j6tj5 j5tj4"/>
    </vehicle>
    <vehicle id="HDV_68" type="HDV" depart="331.00">
        <route edges="j16tj12 j12tj7 j7tj3"/>
    </vehicle>
    <vehicle id="CAV_69" type="CAV" depart="336.00">
        <route edges="j16tj12 j12tj11 j11tj10 j10tj14"/>
    </vehicle>
    <vehicle id="HDV_70" type="HDV" depart="338.00">
        <route edges="j2tj6 j6tj11 j11tj10 j10tj14"/>
    </vehicle>
    <vehicle id="HDV_71" type="HDV" depart="343.00">
        <route edges="j9tj10 j10tj11 j11tj12 j12tj16"/>
    </vehicle>
    <vehicle id="CAV_72" type="CAV" depart="344.00">
        <route edges="j16tj12 j12tj7 j7tj3"/>
    </vehicle>
    <vehicle id="HDV_73" type="HDV" depart="349.00">
        <route edges="j4tj5 j5tj6 j6tj11 j11tj15"/>
    </vehicle>
    <vehicle id="HDV_74" type="HDV" depart="351.00">
        <route edges="j2tj6 j6tj11 j11tj12 j12tj13"/>
    </vehicle>
    <vehicle id="CAV_75" type="CAV" depart="353.00">
        <route edges="j13tj12 j12tj11 j11tj15"/>
    </vehicle>
    <vehicle id="HDV_76" type="HDV" depart="357.00">
        <route edges="j13tj12 j12tj11 j11tj10 j10tj14"/>
    </vehicle>
    <vehicle id="HDV_77" type="HDV" depart="357.00">
        <route edges="j2tj6 j6tj5 j5tj4"/>
    </vehicle>
    <vehicle id="CAV_78" type="CAV" depart="358.00">
        <route edges="j15tj11 j11tj6 j6tj7 j7tj8"/>
    </vehicle>
    <vehicle id="HDV_79" type="HDV" depart="360.00">
        <route edges="j9tj10 j10tj5 j5tj4"/>
    </vehicle>
    <vehicle id="HDV_80" type="HDV" depart="364.00">
        <route edges="j2tj6 j6tj7 j7tj12 j12tj16"/>
    </vehicle>
    <vehicle id="CAV_81" type="CAV" depart="366.00">
        <route edges="j15tj11 j11tj6 j6tj2"/>
    </vehicle>
    <vehicle id="HDV_82" type="HDV" depart="370.00">
        <route edges="j1tj5 j5tj6 j6tj11 j11tj15"/>
    </vehicle>
    <vehicle id="HDV_83" type="HDV" depart="373.00">
        <route edges="j8tj7 j7tj6 j6tj5 j5tj4"/>
    </vehicle>
    <vehicle id="CAV_84" type="CAV" depart="379.00">
        <route edges="j15tj11 j11tj10 j10tj9"/>
    </vehicle>
    <vehicle id="HDV_85" type="HDV" depart="381.00">
        <route edges="j1tj5 j5tj6 j6tj7 j7tj3"/>
    </vehicle>
    <vehicle id="HDV_86" type="HDV" depart="382.00">
        <route edges="j8tj7 j7tj6 j6tj5 j5tj1"/>
    </vehicle>
    <vehicle id="CAV_87" type="CAV" depart="386.00">
        <route edges="j13tj12 j12tj7 j7tj3"/>
    </vehicle>
    <vehicle id="HDV_88" type="HDV" depart="395.00">
        <route edges="j2tj6 j6tj5 j5tj4"/>
    </vehicle>
    <vehicle id="HDV_89" type="HDV" depart="400.00">
        <route edges="j4tj5 j5tj6 j6tj7 j7tj12 j12tj16"/>
    </vehicle>
    <vehicle id="CAV_90" type="CAV" depart="403.00">
        <route edges="j9tj10 j10tj5 j5tj4"/>
    </vehicle>
    <vehicle id="HDV_91" type="HDV" depart="405.00">
        <route edges="j2tj6 j6tj11 j11tj10 j10tj9"/>
    </vehicle>
    <vehicle id="HDV_92" type="HDV" depart="412.00">
        <route edges="j13tj12 j12tj11 j11tj15"/>
    </vehicle>
    <vehicle id="CAV_93" type="CAV" depart="412.00">
        <route edges="j16tj12 j12tj7 j7tj6 j6tj5 j5tj4"/>
    </vehicle>
    <vehicle id="HDV_94" type="HDV" depart="431.00">
        <route edges="j8tj7 j7tj6 j6tj5 j5tj4"/>
    </vehicle>
    <vehicle id="HDV_95" type="HDV" depart="434.00">
        <route edges="j15tj11 j11tj6 j6tj7 j7tj3"/>
    </vehicle>
    <vehicle id="CAV_96" type="CAV" depart="447.00">
        <route edges="j16tj12 j12tj11 j11tj10 j10tj14"/>
    </vehicle>
    <vehicle id="HDV_97" type="HDV" depart="464.00">
        <route edges="j14tj10 j10tj5 j5tj1"/>
    </vehicle>
    <vehicle id="HDV_98" type="HDV" depart="481.00">
        <route edges="j2tj6 j6tj11 j11tj10 j10tj9"/>
    </vehicle>
    <vehicle id="CAV_99" type="CAV" depart="484.00">
        <route edges="j3tj7 j7tj12 j12tj16"/>
    </vehicle>
    <vehicle id="HDV_100" type="HDV" depart="487.00">
        <route edges="j9tj10 j10tj11 j11tj12 j12tj16"/>
    </vehicle>
    <vehicle id="HDV_101" type="HDV" depart="489.00">
        <route edges="j16tj12 j12tj11 j11tj10 j10tj9"/>
    </vehicle>
    <vehicle id="CAV_102" type="CAV" depart="489.00">
        <route edges="j13tj12 j12tj11 j11tj15"/>
    </vehicle>
    <vehicle id="HDV_103" type="HDV" depart="492.00">
        <route edges="j14tj10 j10tj5 j5tj6 j6tj7 j7tj8"/>
    </vehicle>
    <vehicle id="HDV_104" type="HDV" depart="494.00">
        <route edges="j8tj7 j7tj6 j6tj5 j5tj10 j10tj14"/>
    </vehicle>
    <vehicle id="CAV_105" type="CAV" depart="498.00">
        <route edges="j14tj10 j10tj5 j5tj4"/>
    </vehicle>
    <vehicle id="HDV_106" type="HDV" depart="499.00">
        <route edges="j2tj6 j6tj5 j5tj4"/>
    </vehicle>
    <vehicle id="HDV_107" type="HDV" depart="515.00">
        <route edges="j1tj5 j5tj6 j6tj7 j7tj12 j12tj16"/>
    </vehicle>
    <vehicle id="CAV_108" type="CAV" depart="527.00">
        <route edges="j16tj12 j12tj11 j11tj10 j10tj14"/>
    </vehicle>
    <vehicle id="HDV_109" type="HDV" depart="538.00">
        <route edges="j3tj7 j7tj6 j6tj5 j5tj1"/>
    </vehicle>
    <vehicle id="HDV_110" type="HDV" depart="541.00">
        <route edges="j8tj7 j7tj6 j6tj11 j11tj15"/>
    </vehicle>
    <vehicle id="CAV_111" type="CAV" depart="546.00">
        <route edges="j16tj12 j12tj11 j11tj10 j10tj14"/>
    </vehicle>
    <vehicle id="HDV_112" type="HDV" depart="567.00">
        <route edges="j13tj12 j12tj11 j11tj10 j10tj14"/>
    </vehicle>
    <vehicle id="HDV_113" type="HDV" depart="568.00">
        <route edges="j9tj10 j10tj11 j11tj6 j6tj7 j7tj8"/>
    </vehicle>
    <vehicle id="CAV_114" type="CAV" depart="573.00">
        <route edges="j2tj6 j6tj7 j7tj12 j12tj16"/>
    </vehicle>
    <vehicle id="HDV_115" type="HDV" depart="576.00">
        <route edges="j4tj5 j5tj6 j6tj7 j7tj8"/>
    </vehicle>
    <vehicle id="HDV_116" type="HDV" depart="577.00">
        <route edges="j15tj11 j11tj6 j6tj2"/>
    </vehicle>
    <vehicle id="CAV_117" type="CAV" depart="583.00">
        <route edges="j4tj5 j5tj6 j6tj11 j11tj15"/>
    </vehicle>
    <vehicle id="HDV_118" type="HDV" depart="596.00">
        <route edges="j3tj7 j7tj6 j6tj5 j5tj1"/>
    </vehicle>
    <vehicle id="HDV_119" type="HDV" depart="598.00">
        <route edges="j14tj10 j10tj5 j5tj4"/>
    </vehicle>
    <vehicle id="CAV_120" type="CAV" depart="599.00">
        <route edges="j9tj10 j10tj11 j11tj6 j6tj7 j7tj8"/>
    </vehicle>
    <vehicle id="HDV_121" type="HDV" depart="601.00">
        <route edges="j4tj5 j5tj6 j6tj7 j7tj8"/>
    </vehicle>
    <vehicle id="HDV_122" type="HDV" depart="601.00">
        <route edges="j4tj5 j5tj10 j10tj14"/>
    </vehicle>
    <vehicle id="CAV_123" type="CAV" depart="607.00">
        <route edges="j13tj12 j12tj7 j7tj3"/>
    </vehicle>
    <vehicle id="HDV_124" type="HDV" depart="615.00">
        <route edges="j8tj7 j7tj6 j6tj11 j11tj15"/>
    </vehicle>
    <vehicle id="HDV_125" type="HDV" depart="624.00">
        <route edges="j14tj10 j10tj11 j11tj6 j6tj2"/>
    </vehicle>
    <vehicle id="CAV_126" type="CAV" depart="632.00">
        <route edges="j2tj6 j6tj11 j11tj15"/>
    </vehicle>
    <vehicle id="HDV_127" type="HDV" depart="635.00">
        <route edges="j16tj12 j12tj7 j7tj8"/>
    </vehicle>
    <vehicle id="HDV_128" type="HDV" depart="636.00">
        <route edges="j16tj12 j12tj7 j7tj3"/>
    </vehicle>
    <vehicle id="CAV_129" type="CAV" depart="637.00">
        <route edges="j4tj5 j5tj10 j10tj9"/>
    </vehicle>
    <vehicle id="HDV_130" type="HDV" depart="638.00">
        <route edges="j13tj12 j12tj11 j11tj15"/>
    </vehicle>
    <vehicle id="HDV_131" type="HDV" depart="639.00">
        <route edges="j14tj10 j10tj11 j11tj12 j12tj16"/>
    </vehicle>
    <vehicle id="CAV_132" type="CAV" depart="641.00">
        <route edges="j16tj12 j12tj7 j7tj6 j6tj5 j5tj4"/>
    </vehicle>
    <vehicle id="HDV_133" type="HDV" depart="650.00">
        <route edges="j16tj12 j12tj11 j11tj10 j10tj14"/>
    </vehicle>
    <vehicle id="HDV_134" type="HDV" depart="654.00">
        <route edges="j13tj12 j12tj7 j7tj3"/>
    </vehicle>
    <vehicle id="CAV_135" type="CAV" depart="655.00">
        <route edges="j3tj7 j7tj12 j12tj13"/>
    </vehicle>
    <vehicle id="HDV_136" type="HDV" depart="657.00">
        <route edges="j4tj5 j5tj10 j10tj14"/>
    </vehicle>
    <vehicle id="HDV_137" type="HDV" depart="660.00">
        <route edges="j15tj11 j11tj6 j6tj2"/>
    </vehicle>
    <vehicle id="CAV_138" type="CAV" depart="661.00">
        <route edges="j9tj10 j10tj5 j5tj1"/>
    </vehicle>
    <vehicle id="HDV_139" type="HDV" depart="665.00">
        <route edges="j2tj6 j6tj11 j11tj12 j12tj13"/>
    </vehicle>
    <vehicle id="HDV_140" type="HDV" depart="665.00">
        <route edges="j14tj10 j10tj5 j5tj6 j6tj7 j7tj3"/>
    </vehicle>
    <vehicle id="CAV_141" type="CAV" depart="666.00">
        <route edges="j15tj11 j11tj6 j6tj5 j5tj1"/>
    </vehicle>
    <vehicle id="HDV_142" type="HDV" depart="668.00">
        <route edges="j13tj12 j12tj7 j7tj6 j6tj5 j5tj4"/>
    </vehicle>
    <vehicle id="HDV_143" type="HDV" depart="671.00">
        <route edges="j2tj6 j6tj11 j11tj12 j12tj13"/>
    </vehicle>
    <vehicle id="CAV_144" type="CAV" depart="676.00">
        <route edges="j2tj6 j6tj11 j11tj15"/>
    </vehicle>
    <vehicle id="HDV_145" type="HDV" depart="679.00">
        <route edges="j15tj11 j11tj6 j6tj2"/>
    </vehicle>
    <vehicle id="HDV_146" type="HDV" depart="684.00">
        <route edges="j2tj6 j6tj5 j5tj4"/>
    </vehicle>
    <vehicle id="CAV_147" type="CAV" depart="686.00">
        <route edges="j1tj5 j5tj6 j6tj7 j7tj3"/>
    </vehicle>
    <vehicle id="HDV_148" type="HDV" depart="699.00">
        <route edges="j14tj10 j10tj5 j5tj1"/>
    </vehicle>
    <vehicle id="HDV_149" type="HDV" depart="699.00">
        <route edges="j4tj5 j5tj6 j6tj7 j7tj12 j12tj13"/>
    </vehicle>
    <vehicle id="CAV_150" type="CAV" depart="702.00">
        <route edges="j1tj5 j5tj6 j6tj7 j7tj3"/>
    </vehicle>
    <vehicle id="HDV_151" type="HDV" depart="708.00">
        <route edges="j8tj7 j7tj12 j12tj16"/>
    </vehicle>
    <vehicle id="HDV_152" type="HDV" depart="712.00">
        <route edges="j13tj12 j12tj7 j7tj3"/>
    </vehicle>
    <vehicle id="CAV_153" type="CAV" depart="718.00">
        <route edges="j4tj5 j5tj6 j6tj7 j7tj12 j12tj13"/>
    </vehicle>
    <vehicle id="HDV_154" type="HDV" depart="722.00">
        <route edges="j8tj7 j7tj12 j12tj16"/>
    </vehicle>
    <vehicle id="HDV_155" type="HDV" depart="733.00">
        <route edges="j15tj11 j11tj6 j6tj7 j7tj3"/>
    </vehicle>
    <vehicle id="CAV_156" type="CAV" depart="733.00">
        <route edges="j13tj12 j12tj11 j11tj6 j6tj2"/>
    </vehicle>
    <vehicle id="HDV_157" type="HDV" depart="741.00">
        <route edges="j3tj7 j7tj12 j12tj16"/>
    </vehicle>
    <vehicle id="HDV_158" type="HDV" depart="745.00">
        <route edges="j9tj10 j10tj11 j11tj12 j12tj7 j7tj3"/>
    </vehicle>
    <vehicle id="CAV_159" type="CAV" depart="752.00">
        <route edges="j8tj7 j7tj6 j6tj5 j5tj1"/>
    </vehicle>
    <vehicle id="HDV_160" type="HDV" depart="761.00">
        <route edges="j4tj5 j5tj6 j6tj7 j7tj3"/>
    </vehicle>
    <vehicle id="HDV_161" type="HDV" depart="764.00">
        <route edges="j4tj5 j5tj6 j6tj7 j7tj8"/>
    </vehicle>
    <vehicle id="CAV_162" type="CAV" depart="766.00">
        <route edges="j15tj11 j11tj6 j6tj7 j7tj8"/>
    </vehicle>
    <vehicle id="HDV_163" type="HDV" depart="773.00">
        <route edges="j16tj12 j12tj7 j7tj6 j6tj5 j5tj1"/>
    </vehicle>
    <vehicle id="HDV_164" type="HDV" depart="774.00">
        <route edges="j14tj10 j10tj11 j11tj12 j12tj13"/>
    </vehicle>
    <vehicle id="CAV_165" type="CAV" depart="782.00">
        <route edges="j16tj12 j12tj7 j7tj6 j6tj2"/>
    </vehicle>
    <vehicle id="HDV_166" type="HDV" depart="788.00">
        <route edges="j4tj5 j5tj10 j10tj9"/>
    </vehicle>
    <vehicle id="HDV_167" type="HDV" depart="789.00">
        <route edges="j1tj5 j5tj6 j6tj11 j11tj15"/>
    </vehicle>
    <vehicle id="CAV_168" type="CAV" depart="797.00">
        <route edges="j1tj5 j5tj6 j6tj7 j7tj8"/>
    </vehicle>
    <vehicle id="HDV_169" type="HDV" depart="801.00">
        <route edges="j3tj7 j7tj6 j6tj5 j5tj4"/>
    </vehicle>
    <vehicle id="HDV_170" type="HDV" depart="802.00">
        <route edges="j14tj10 j10tj5 j5tj6 j6tj7 j7tj8"/>
    </vehicle>
    <vehicle id="CAV_171" type="CAV" depart="806.00">
        <route edges="j15tj11 j11tj6 j6tj5 j5tj1"/>
    </vehicle>
    <vehicle id="HDV_172" type="HDV" depart="808.00">
        <route edges="j9tj10 j10tj11 j11tj12 j12tj16"/>
    </vehicle>
    <vehicle id="HDV_173" type="HDV" depart="808.00">
        <route edges="j13tj12 j12tj11 j11tj10 j10tj9"/>
    </vehicle>
    <vehicle id="CAV_174" type="CAV" depart="815.00">
        <route edges="j3tj7 j7tj12 j12tj16"/>
    </vehicle>
    <vehicle id="HDV_175" type="HDV" depart="817.00">
        <route edges="j15tj11 j11tj6 j6tj2"/>
    </vehicle>
    <vehicle id="HDV_176" type="HDV" depart="822.00">
        <route edges="j3tj7 j7tj12 j12tj13"/>
    </vehicle>
    <vehicle id="CAV_177" type="CAV" depart="826.00">
        <route edges="j3tj7 j7tj12 j12tj11 j11tj10 j10tj9"/>
    </vehicle>
    <vehicle id="HDV_178" type="HDV" depart="826.00">
        <route edges="j9tj10 j10tj11 j11tj12 j12tj16"/>
    </vehicle>
    <vehicle id="HDV_179" type="HDV" depart="836.00">
        <route edges="j15tj11 j11tj12 j12tj13"/>
    </vehicle>
    <vehicle id="CAV_180" type="CAV" depart="841.00">
        <route edges="j14tj10 j10tj11 j11tj6 j6tj2"/>
    </vehicle>
    <vehicle id="HDV_181" type="HDV" depart="841.00">
        <route edges="j9tj10 j10tj11 j11tj12 j12tj16"/>
    </vehicle>
    <vehicle id="HDV_182" type="HDV" depart="844.00">
        <route edges="j9tj10 j10tj11 j11tj6 j6tj2"/>
    </vehicle>
    <vehicle id="CAV_183" type="CAV" depart="846.00">
        <route edges="j4tj5 j5tj6 j6tj11 j11tj15"/>
    </vehicle>
    <vehicle id="HDV_184" type="HDV" depart="848.00">
        <route edges="j1tj5 j5tj10 j10tj11 j11tj12 j12tj13"/>
    </vehicle>
    <vehicle id="HDV_185" type="HDV" depart="848.00">
        <route edges="j3tj7 j7tj6 j6tj5 j5tj4"/>
    </vehicle>
    <vehicle id="CAV_186" type="CAV" depart="853.00">
        <route edges="j2tj6 j6tj11 j11tj12 j12tj13"/>
    </vehicle>
    <vehicle id="HDV_187" type="HDV" depart="855.00">
        <route edges="j1tj5 j5tj6 j6tj7 j7tj8"/>
    </vehicle>
    <vehicle id="HDV_188" type="HDV" depart="859.00">
        <route edges="j14tj10 j10tj5 j5tj4"/>
    </vehicle>
    <vehicle id="CAV_189" type="CAV" depart="860.00">
        <route edges="j14tj10 j10tj11 j11tj12 j12tj16"/>
    </vehicle>
    <vehicle id="HDV_190" type="HDV" depart="861.00">
        <route edges="j9tj10 j10tj11 j11tj12 j12tj16"/>
    </vehicle>
    <vehicle id="HDV_191" type="HDV" depart="868.00">
        <route edges="j13tj12 j12tj11 j11tj10 j10tj9"/>
    </vehicle>
    <vehicle id="CAV_192" type="CAV" depart="869.00">
        <route edges="j4tj5 j5tj6 j6tj2"/>
    </vehicle>
    <vehicle id="HDV_193" type="HDV" depart="877.00">
        <route edges="j13tj12 j12tj11 j11tj10 j10tj9"/>
    </vehicle>
    <vehicle id="HDV_194" type="HDV" depart="893.00">
        <route edges="j13tj12 j12tj11 j11tj10 j10tj14"/>
    </vehicle>
    <vehicle id="CAV_195" type="CAV" depart="893.00">
        <route edges="j9tj10 j10tj11 j11tj12 j12tj16"/>
    </vehicle>
    <vehicle id="HDV_196" type="HDV" depart="894.00">
        <route edges="j4tj5 j5tj6 j6tj7 j7tj12 j12tj16"/>
    </vehicle>
    <vehicle id="HDV_197" type="HDV" depart="894.00">
        <route edges="j16tj12 j12tj7 j7tj6 j6tj5 j5tj1"/>
    </vehicle>
    <vehicle id="CAV_198" type="CAV" depart="899.00">
        <route edges="j3tj7 j7tj6 j6tj5 j5tj4"/>
    </vehicle>
    <vehicle id="HDV_199" type="HDV" depart="900.00">
        <route edges="j15tj11 j11tj6 j6tj7 j7tj3"/>
    </vehicle>
    <vehicle id="HDV_200" type="HDV" depart="905.00">
        <route edges="j3tj7 j7tj12 j12tj11 j11tj10 j10tj9"/>
    </vehicle>
    <vehicle id="CAV_201" type="CAV" depart="914.00">
        <route edges="j8tj7 j7tj6 j6tj5 j5tj1"/>
    </vehicle>
    <vehicle id="HDV_202" type="HDV" depart="921.00">
        <route edges="j16tj12 j12tj7 j7tj6 j6tj2"/>
    </vehicle>
    <vehicle id="HDV_203" type="HDV" depart="921.00">
        <route edges="j3tj7 j7tj6 j6tj5 j5tj10 j10tj14"/>
    </vehicle>
    <vehicle id="CAV_204" type="CAV" depart="923.00">
        <route edges="j13tj12 j12tj7 j7tj6 j6tj5 j5tj4"/>
    </vehicle>
    <vehicle id="HDV_205" type="HDV" depart="927.00">
        <route edges="j15tj11 j11tj6 j6tj7 j7tj8"/>
    </vehicle>
    <vehicle id="HDV_206" type="HDV" depart="946.00">
        <route edges="j14tj10 j10tj5 j5tj6 j6tj7 j7tj8"/>
    </vehicle>
    <vehicle id="CAV_207" type="CAV" depart="951.00">
        <route edges="j4tj5 j5tj6 j6tj7 j7tj12 j12tj16"/>
    </vehicle>
    <vehicle id="HDV_208" type="HDV" depart="953.00">
        <route edges="j13tj12 j12tj7 j7tj3"/>
    </vehicle>
    <vehicle id="HDV_209" type="HDV" depart="957.00">
        <route edges="j4tj5 j5tj10 j10tj9"/>
    </vehicle>
    <vehicle id="CAV_210" type="CAV" depart="959.00">
        <route edges="j15tj11 j11tj6 j6tj2"/>
    </vehicle>
    <vehicle id="HDV_211" type="HDV" depart="974.00">
        <route edges="j4tj5 j5tj6 j6tj7 j7tj12 j12tj13"/>
    </vehicle>
    <vehicle id="HDV_212" type="HDV" depart="977.00">
        <route edges="j1tj5 j5tj10 j10tj9"/>
    </vehicle>
    <vehicle id="CAV_213" type="CAV" depart="978.00">
        <route edges="j1tj5 j5tj6 j6tj7 j7tj8"/>
    </vehicle>
    <vehicle id="HDV_214" type="HDV" depart="979.00">
        <route edges="j13tj12 j12tj7 j7tj3"/>
    </vehicle>
    <vehicle id="HDV_215" type="HDV" depart="979.00">
        <route edges="j2tj6 j6tj11 j11tj10 j10tj14"/>
    </vehicle>
    <vehicle id="CAV_216" type="CAV" depart="985.00">
        <route edges="j3tj7 j7tj6 j6tj11 j11tj15"/>
    </vehicle>
    <vehicle id="HDV_217" type="HDV" depart="991.00">
        <route edges="j8tj7 j7tj6 j6tj5 j5tj10 j10tj14"/>
    </vehicle>
    <vehicle id="HDV_218" type="HDV" depart="999.00">
        <route edges="j3tj7 j7tj12 j12tj11 j11tj10 j10tj9"/>
    </vehicle>
    <vehicle id="CAV_219" type="CAV" depart="1010.00">
        <route edges="j15tj11 j11tj6 j6tj7 j7tj3"/>
    </vehicle>
    <vehicle id="HDV_220" type="HDV" depart="1011.00">
        <route edges="j1tj5 j5tj6 j6tj7 j7tj3"/>
    </vehicle>
    <vehicle id="HDV_221" type="HDV" depart="1021.00">
        <route edges="j14tj10 j10tj5 j5tj1"/>
    </vehicle>
    <vehicle id="CAV_222" type="CAV" depart="1023.00">
        <route edges="j16tj12 j12tj7 j7tj6 j6tj2"/>
    </vehicle>
    <vehicle id="HDV_223" type="HDV" depart="1025.00">
        <route edges="j16tj12 j12tj7 j7tj6 j6tj5 j5tj1"/>
    </vehicle>
    <vehicle id="HDV_224" type="HDV" depart="1029.00">
        <route edges="j8tj7 j7tj6 j6tj5 j5tj4"/>
    </vehicle>
    <vehicle id="CAV_225" type="CAV" depart="1033.00">
        <route edges="j1tj5 j5tj6 j6tj7 j7tj8"/>
    </vehicle>
    <vehicle id="HDV_226" type="HDV" depart="1036.00">
        <route edges="j8tj7 j7tj12 j12tj16"/>
    </vehicle>
    <vehicle id="HDV_227" type="HDV" depart="1051.00">
        <route edges="j13tj12 j12tj11 j11tj6 j6tj2"/>
    </vehicle>
    <vehicle id="CAV_228" type="CAV" depart="1062.00">
        <route edges="j9tj10 j10tj11 j11tj15"/>
    </vehicle>
    <vehicle id="HDV_229" type="HDV" depart="1063.00">
        <route edges="j15tj11 j11tj6 j6tj5 j5tj4"/>
    </vehicle>
    <vehicle id="HDV_230" type="HDV" depart="1068.00">
        <route edges="j15tj11 j11tj10 j10tj9"/>
    </vehicle>
    <vehicle id="CAV_231" type="CAV" depart="1069.00">
        <route edges="j14tj10 j10tj5 j5tj6 j6tj7 j7tj8"/>
    </vehicle>
    <vehicle id="HDV_232" type="HDV" depart="1069.00">
        <route edges="j3tj7 j7tj6 j6tj5 j5tj10 j10tj14"/>
    </vehicle>
    <vehicle id="HDV_233" type="HDV" depart="1071.00">
        <route edges="j15tj11 j11tj6 j6tj7 j7tj3"/>
    </vehicle>
    <vehicle id="CAV_234" type="CAV" depart="1076.00">
        <route edges="j2tj6 j6tj11 j11tj15"/>
    </vehicle>
    <vehicle id="HDV_235" type="HDV" depart="1076.00">
        <route edges="j16tj12 j12tj11 j11tj10 j10tj9"/>
    </vehicle>
    <vehicle id="HDV_236" type="HDV" depart="1082.00">
        <route edges="j16tj12 j12tj7 j7tj6 j6tj2"/>
    </vehicle>
    <vehicle id="CAV_237" type="CAV" depart="1089.00">
        <route edges="j2tj6 j6tj7 j7tj8"/>
    </vehicle>
    <vehicle id="HDV_238" type="HDV" depart="1090.00">
        <route edges="j8tj7 j7tj6 j6tj5 j5tj4"/>
    </vehicle>
    <vehicle id="HDV_239" type="HDV" depart="1093.00">
        <route edges="j3tj7 j7tj12 j12tj13"/>
    </vehicle>
    <vehicle id="CAV_240" type="CAV" depart="1098.00">
        <route edges="j14tj10 j10tj5 j5tj4"/>
    </vehicle>
    <vehicle id="HDV_241" type="HDV" depart="1106.00">
        <route edges="j13tj12 j12tj11 j11tj15"/>
    </vehicle>
    <vehicle id="HDV_242" type="HDV" depart="1108.00">
        <route edges="j9tj10 j10tj11 j11tj6 j6tj7 j7tj8"/>
    </vehicle>
    <vehicle id="CAV_243" type="CAV" depart="1111.00">
        <route edges="j16tj12 j12tj7 j7tj3"/>
    </vehicle>