<?xml version="1.0" encoding="UTF-8"?>

<!-- generated on 2025-01-09 14:57:47 by Eclipse SUMO duarouter Version 1.21.0
<duarouterConfiguration xmlns:xsi="http://www.w3.org/2001/XMLSchema-instance" xsi:noNamespaceSchemaLocation="http://sumo.dlr.de/xsd/duarouterConfiguration.xsd">

    <input>
        <net-file value="Map_new.net.xml"/>
        <route-files value="custom_gaussian.trips.xml"/>
    </input>

    <output>
        <output-file value="Gaussian.rou.xml"/>
    </output>

</duarouterConfiguration>
-->

<routes xmlns:xsi="http://www.w3.org/2001/XMLSchema-instance" xsi:noNamespaceSchemaLocation="http://sumo.dlr.de/xsd/routes_file.xsd">
    <vType id="CAV" length="4.00"/>
    <vehicle id="CAV_0" type="CAV" depart="3.00">
        <route edges="j9tj10 j10tj5 j5tj1"/>
    </vehicle>
    <vType id="HDV" length="4.00"/>
    <vehicle id="HDV_1" type="HDV" depart="5.00">
        <route edges="j8tj7 j7tj6 j6tj5 j5tj10 j10tj14"/>
    </vehicle>
    <vehicle id="HDV_2" type="HDV" depart="11.00">
        <route edges="j3tj7 j7tj12 j12tj13"/>
    </vehicle>
    <vehicle id="CAV_3" type="CAV" depart="12.00">
        <route edges="j8tj7 j7tj6 j6tj5 j5tj1"/>
    </vehicle>
    <vehicle id="HDV_4" type="HDV" depart="15.00">
        <route edges="j15tj11 j11tj10 j10tj9"/>
    </vehicle>
    <vehicle id="HDV_5" type="HDV" depart="17.00">
        <route edges="j13tj12 j12tj11 j11tj6 j6tj2"/>
    </vehicle>
    <vehicle id="CAV_6" type="CAV" depart="24.00">
        <route edges="j14tj10 j10tj11 j11tj12 j12tj16"/>
    </vehicle>
    <vehicle id="HDV_7" type="HDV" depart="24.00">
        <route edges="j15tj11 j11tj6 j6tj5 j5tj1"/>
    </vehicle>
    <vehicle id="HDV_8" type="HDV" depart="24.00">
        <route edges="j13tj12 j12tj7 j7tj3"/>
    </vehicle>
    <vehicle id="CAV_9" type="CAV" depart="39.00">
        <route edges="j15tj11 j11tj6 j6tj5 j5tj1"/>
    </vehicle>
    <vehicle id="HDV_10" type="HDV" depart="40.00">
        <route edges="j13tj12 j12tj7 j7tj6 j6tj5 j5tj4"/>
    </vehicle>
    <vehicle id="HDV_11" type="HDV" depart="40.00">
        <route edges="j1tj5 j5tj6 j6tj7 j7tj12 j12tj16"/>
    </vehicle>
    <vehicle id="CAV_12" type="CAV" depart="44.00">
        <route edges="j14tj10 j10tj5 j5tj6 j6tj7 j7tj8"/>
    </vehicle>
    <vehicle id="HDV_13" type="HDV" depart="47.00">
        <route edges="j2tj6 j6tj11 j11tj15"/>
    </vehicle>
    <vehicle id="HDV_14" type="HDV" depart="47.00">
        <route edges="j1tj5 j5tj6 j6tj7 j7tj3"/>
    </vehicle>
    <vehicle id="CAV_15" type="CAV" depart="47.00">
        <route edges="j4tj5 j5tj10 j10tj9"/>
    </vehicle>
    <vehicle id="HDV_16" type="HDV" depart="51.00">
        <route edges="j14tj10 j10tj5 j5tj6 j6tj7 j7tj8"/>
    </vehicle>
    <vehicle id="HDV_17" type="HDV" depart="55.00">
        <route edges="j16tj12 j12tj7 j7tj6 j6tj5 j5tj1"/>
    </vehicle>
    <vehicle id="CAV_18" type="CAV" depart="56.00">
        <route edges="j15tj11 j11tj6 j6tj7 j7tj3"/>
    </vehicle>
    <vehicle id="HDV_19" type="HDV" depart="63.00">
        <route edges="j1tj5 j5tj6 j6tj7 j7tj3"/>
    </vehicle>
    <vehicle id="HDV_20" type="HDV" depart="67.00">
        <route edges="j13tj12 j12tj11 j11tj10 j10tj9"/>
    </vehicle>
    <vehicle id="CAV_21" type="CAV" depart="70.00">
        <route edges="j13tj12 j12tj11 j11tj10 j10tj5 j5tj1"/>
    </vehicle>
    <vehicle id="HDV_22" type="HDV" depart="70.00">
        <route edges="j4tj5 j5tj10 j10tj9"/>
    </vehicle>
    <vehicle id="HDV_23" type="HDV" depart="71.00">
        <route edges="j15tj11 j11tj12 j12tj13"/>
    </vehicle>
    <vehicle id="CAV_24" type="CAV" depart="73.00">
        <route edges="j16tj12 j12tj11 j11tj10 j10tj14"/>
    </vehicle>
    <vehicle id="HDV_25" type="HDV" depart="74.00">
        <route edges="j14tj10 j10tj5 j5tj4"/>
    </vehicle>
    <vehicle id="HDV_26" type="HDV" depart="79.00">
        <route edges="j2tj6 j6tj7 j7tj8"/>
    </vehicle>
    <vehicle id="CAV_27" type="CAV" depart="83.00">
        <route edges="j8tj7 j7tj6 j6tj2"/>
    </vehicle>
    <vehicle id="HDV_28" type="HDV" depart="83.00">
        <route edges="j2tj6 j6tj7 j7tj12 j12tj16"/>
    </vehicle>
    <vehicle id="HDV_29" type="HDV" depart="85.00">
        <route edges="j14tj10 j10tj11 j11tj6 j6tj2"/>
    </vehicle>
    <vehicle id="CAV_30" type="CAV" depart="87.00">
        <route edges="j15tj11 j11tj6 j6tj5 j5tj4"/>
    </vehicle>
    <vehicle id="HDV_31" type="HDV" depart="88.00">
        <route edges="j14tj10 j10tj5 j5tj1"/>
    </vehicle>
    <vehicle id="HDV_32" type="HDV" depart="91.00">
        <route edges="j1tj5 j5tj6 j6tj7 j7tj3"/>
    </vehicle>
    <vehicle id="CAV_33" type="CAV" depart="97.00">
        <route edges="j1tj5 j5tj10 j10tj9"/>
    </vehicle>
    <vehicle id="HDV_34" type="HDV" depart="97.00">
        <route edges="j15tj11 j11tj6 j6tj7 j7tj8"/>
    </vehicle>
    <vehicle id="HDV_35" type="HDV" depart="101.00">
        <route edges="j13tj12 j12tj7 j7tj6 j6tj5 j5tj4"/>
    </vehicle>
    <vehicle id="CAV_36" type="CAV" depart="105.00">
        <route edges="j16tj12 j12tj11 j11tj10 j10tj9"/>
    </vehicle>
    <vehicle id="HDV_37" type="HDV" depart="109.00">
        <route edges="j1tj5 j5tj6 j6tj7 j7tj3"/>
    </vehicle>
    <vehicle id="HDV_38" type="HDV" depart="111.00">
        <route edges="j14tj10 j10tj5 j5tj6 j6tj7 j7tj8"/>
    </vehicle>
    <vehicle id="CAV_39" type="CAV" depart="111.00">
        <route edges="j3tj7 j7tj12 j12tj16"/>
    </vehicle>
    <vehicle id="HDV_40" type="HDV" depart="113.00">
        <route edges="j15tj11 j11tj6 j6tj7 j7tj8"/>
    </vehicle>
    <vehicle id="HDV_41" type="HDV" depart="117.00">
        <route edges="j9tj10 j10tj11 j11tj12 j12tj7 j7tj3"/>
    </vehicle>
    <vehicle id="CAV_42" type="CAV" depart="120.00">
        <route edges="j15tj11 j11tj12 j12tj13"/>
    </vehicle>
    <vehicle id="HDV_43" type="HDV" depart="120.00">
        <route edges="j1tj5 j5tj10 j10tj9"/>
    </vehicle>
    <vehicle id="HDV_44" type="HDV" depart="125.00">
        <route edges="j14tj10 j10tj5 j5tj1"/>
    </vehicle>
    <vehicle id="CAV_45" type="CAV" depart="127.00">
        <route edges="j16tj12 j12tj7 j7tj8"/>
    </vehicle>
    <vehicle id="HDV_46" type="HDV" depart="130.00">
        <route edges="j13tj12 j12tj11 j11tj10 j10tj5 j5tj1"/>
    </vehicle>
    <vehicle id="HDV_47" type="HDV" depart="131.00">
        <route edges="j15tj11 j11tj10 j10tj9"/>
    </vehicle>
    <vehicle id="CAV_48" type="CAV" depart="132.00">
        <route edges="j2tj6 j6tj5 j5tj4"/>
    </vehicle>
    <vehicle id="HDV_49" type="HDV" depart="132.00">
        <route edges="j1tj5 j5tj10 j10tj9"/>
    </vehicle>
    <vehicle id="HDV_50" type="HDV" depart="133.00">
        <route edges="j16tj12 j12tj7 j7tj3"/>
    </vehicle>
    <vehicle id="CAV_51" type="CAV" depart="135.00">
        <route edges="j3tj7 j7tj6 j6tj11 j11tj15"/>
    </vehicle>
    <vehicle id="HDV_52" type="HDV" depart="142.00">
        <route edges="j2tj6 j6tj11 j11tj10 j10tj14"/>
    </vehicle>
    <vehicle id="HDV_53" type="HDV" depart="144.00">
        <route edges="j8tj7 j7tj12 j12tj16"/>
    </vehicle>
    <vehicle id="CAV_54" type="CAV" depart="145.00">
        <route edges="j1tj5 j5tj10 j10tj9"/>
    </vehicle>
    <vehicle id="HDV_55" type="HDV" depart="145.00">
        <route edges="j14tj10 j10tj5 j5tj4"/>
    </vehicle>
    <vehicle id="HDV_56" type="HDV" depart="147.00">
        <route edges="j15tj11 j11tj6 j6tj2"/>
    </vehicle>
    <vehicle id="CAV_57" type="CAV" depart="148.00">
        <route edges="j3tj7 j7tj12 j12tj16"/>
    </vehicle>
    <vehicle id="HDV_58" type="HDV" depart="154.00">
        <route edges="j8tj7 j7tj6 j6tj2"/>
    </vehicle>
    <vehicle id="HDV_59" type="HDV" depart="155.00">
        <route edges="j15tj11 j11tj6 j6tj5 j5tj1"/>
    </vehicle>
    <vehicle id="CAV_60" type="CAV" depart="155.00">
        <route edges="j15tj11 j11tj6 j6tj7 j7tj3"/>
    </vehicle>
    <vehicle id="HDV_61" type="HDV" depart="161.00">
        <route edges="j2tj6 j6tj11 j11tj15"/>
    </vehicle>
    <vehicle id="HDV_62" type="HDV" depart="161.00">
        <route edges="j16tj12 j12tj7 j7tj8"/>
    </vehicle>
    <vehicle id="CAV_63" type="CAV" depart="162.00">
        <route edges="j15tj11 j11tj6 j6tj2"/>
    </vehicle>
    <vehicle id="HDV_64" type="HDV" depart="164.00">
        <route edges="j9tj10 j10tj5 j5tj1"/>
    </vehicle>
    <vehicle id="HDV_65" type="HDV" depart="173.00">
        <route edges="j3tj7 j7tj12 j12tj11 j11tj10 j10tj9"/>
    </vehicle>
    <vehicle id="CAV_66" type="CAV" depart="173.00">
        <route edges="j8tj7 j7tj12 j12tj16"/>
    </vehicle>
    <vehicle id="HDV_67" type="HDV" depart="176.00">
        <route edges="j14tj10 j10tj11 j11tj12 j12tj16"/>
    </vehicle>
    <vehicle id="HDV_68" type="HDV" depart="192.00">
        <route edges="j13tj12 j12tj11 j11tj10 j10tj5 j5tj1"/>
    </vehicle>
    <vehicle id="CAV_69" type="CAV" depart="194.00">
        <route edges="j1tj5 j5tj6 j6tj11 j11tj15"/>
    </vehicle>
    <vehicle id="HDV_70" type="HDV" depart="197.00">
        <route edges="j15tj11 j11tj6 j6tj7 j7tj3"/>
    </vehicle>
    <vehicle id="HDV_71" type="HDV" depart="198.00">
        <route edges="j13tj12 j12tj11 j11tj10 j10tj14"/>
    </vehicle>
    <vehicle id="CAV_72" type="CAV" depart="200.00">
        <route edges="j13tj12 j12tj7 j7tj6 j6tj5 j5tj4"/>
    </vehicle>
    <vehicle id="HDV_73" type="HDV" depart="202.00">
        <route edges="j14tj10 j10tj11 j11tj12 j12tj13"/>
    </vehicle>
    <vehicle id="HDV_74" type="HDV" depart="206.00">
        <route edges="j8tj7 j7tj6 j6tj11 j11tj15"/>
    </vehicle>
    <vehicle id="CAV_75" type="CAV" depart="208.00">
        <route edges="j16tj12 j12tj7 j7tj8"/>
    </vehicle>
    <vehicle id="HDV_76" type="HDV" depart="209.00">
        <route edges="j8tj7 j7tj6 j6tj5 j5tj4"/>
    </vehicle>
    <vehicle id="HDV_77" type="HDV" depart="211.00">
        <route edges="j16tj12 j12tj7 j7tj3"/>
    </vehicle>
    <vehicle id="CAV_78" type="CAV" depart="211.00">
        <route edges="j15tj11 j11tj6 j6tj5 j5tj4"/>
    </vehicle>
    <vehicle id="HDV_79" type="HDV" depart="211.00">
        <route edges="j3tj7 j7tj6 j6tj11 j11tj15"/>
    </vehicle>
    <vehicle id="HDV_80" type="HDV" depart="215.00">
        <route edges="j2tj6 j6tj11 j11tj15"/>
    </vehicle>
    <vehicle id="CAV_81" type="CAV" depart="221.00">
        <route edges="j15tj11 j11tj10 j10tj9"/>
    </vehicle>
    <vehicle id="HDV_82" type="HDV" depart="223.00">
        <route edges="j16tj12 j12tj7 j7tj6 j6tj5 j5tj4"/>
    </vehicle>
    <vehicle id="HDV_83" type="HDV" depart="224.00">
        <route edges="j1tj5 j5tj10 j10tj11 j11tj12 j12tj13"/>
    </vehicle>
    <vehicle id="CAV_84" type="CAV" depart="224.00">
        <route edges="j2tj6 j6tj11 j11tj12 j12tj13"/>
    </vehicle>
    <vehicle id="HDV_85" type="HDV" depart="224.00">
        <route edges="j16tj12 j12tj7 j7tj6 j6tj2"/>
    </vehicle>
    <vehicle id="HDV_86" type="HDV" depart="226.00">
        <route edges="j8tj7 j7tj6 j6tj11 j11tj10 j10tj9"/>
    </vehicle>
    <vehicle id="CAV_87" type="CAV" depart="228.00">
        <route edges="j13tj12 j12tj11 j11tj6 j6tj2"/>
    </vehicle>
    <vehicle id="HDV_88" type="HDV" depart="232.00">
        <route edges="j2tj6 j6tj11 j11tj10 j10tj9"/>
    </vehicle>
    <vehicle id="HDV_89" type="HDV" depart="235.00">
        <route edges="j2tj6 j6tj11 j11tj10 j10tj9"/>
    </vehicle>
    <vehicle id="CAV_90" type="CAV" depart="242.00">
        <route edges="j8tj7 j7tj6 j6tj2"/>
    </vehicle>
    <vehicle id="HDV_91" type="HDV" depart="247.00">
        <route edges="j16tj12 j12tj11 j11tj10 j10tj9"/>
    </vehicle>
    <vehicle id="HDV_92" type="HDV" depart="258.00">
        <route edges="j15tj11 j11tj6 j6tj7 j7tj3"/>
    </vehicle>
    <vehicle id="CAV_93" type="CAV" depart="258.00">
        <route edges="j9tj10 j10tj11 j11tj6 j6tj2"/>
    </vehicle>
    <vehicle id="HDV_94" type="HDV" depart="264.00">
        <route edges="j1tj5 j5tj6 j6tj7 j7tj8"/>
    </vehicle>
    <vehicle id="HDV_95" type="HDV" depart="267.00">
        <route edges="j14tj10 j10tj5 j5tj1"/>
    </vehicle>
    <vehicle id="CAV_96" type="CAV" depart="271.00">
        <route edges="j14tj10 j10tj5 j5tj6 j6tj7 j7tj8"/>
    </vehicle>
    <vehicle id="HDV_97" type="HDV" depart="272.00">
        <route edges="j4tj5 j5tj10 j10tj9"/>
    </vehicle>
    <vehicle id="HDV_98" type="HDV" depart="276.00">
        <route edges="j8tj7 j7tj6 j6tj11 j11tj10 j10tj9"/>
    </vehicle>
    <vehicle id="CAV_99" type="CAV" depart="277.00">
        <route edges="j4tj5 j5tj10 j10tj14"/>
    </vehicle>
    <vehicle id="HDV_100" type="HDV" depart="278.00">
        <route edges="j15tj11 j11tj6 j6tj7 j7tj3"/>
    </vehicle>
    <vehicle id="HDV_101" type="HDV" depart="280.00">
        <route edges="j1tj5 j5tj6 j6tj7 j7tj3"/>
    </vehicle>
    <vehicle id="CAV_102" type="CAV" depart="281.00">
        <route edges="j3tj7 j7tj12 j12tj13"/>
    </vehicle>
    <vehicle id="HDV_103" type="HDV" depart="285.00">
        <route edges="j1tj5 j5tj6 j6tj11 j11tj15"/>
    </vehicle>
    <vehicle id="HDV_104" type="HDV" depart="289.00">
        <route edges="j3tj7 j7tj12 j12tj13"/>
    </vehicle>
    <vehicle id="CAV_105" type="CAV" depart="290.00">
        <route edges="j2tj6 j6tj11 j11tj12 j12tj13"/>
    </vehicle>
    <vehicle id="HDV_106" type="HDV" depart="290.00">
        <route edges="j15tj11 j11tj10 j10tj9"/>
    </vehicle>
    <vehicle id="HDV_107" type="HDV" depart="291.00">
        <route edges="j9tj10 j10tj5 j5tj4"/>
    </vehicle>
    <vehicle id="CAV_108" type="CAV" depart="292.00">
        <route edges="j4tj5 j5tj6 j6tj7 j7tj12 j12tj13"/>
    </vehicle>
    <vehicle id="HDV_109" type="HDV" depart="294.00">
        <route edges="j1tj5 j5tj6 j6tj7 j7tj8"/>
    </vehicle>
    <vehicle id="HDV_110" type="HDV" depart="294.00">
        <route edges="j14tj10 j10tj5 j5tj4"/>
    </vehicle>
    <vehicle id="CAV_111" type="CAV" depart="305.00">
        <route edges="j1tj5 j5tj10 j10tj9"/>
    </vehicle>
    <vehicle id="HDV_112" type="HDV" depart="306.00">
        <route edges="j16tj12 j12tj7 j7tj8"/>
    </vehicle>
    <vehicle id="HDV_113" type="HDV" depart="307.00">
        <route edges="j3tj7 j7tj6 j6tj5 j5tj4"/>
    </vehicle>
    <vehicle id="CAV_114" type="CAV" depart="310.00">
        <route edges="j9tj10 j10tj5 j5tj1"/>
    </vehicle>
    <vehicle id="HDV_115" type="HDV" depart="312.00">
        <route edges="j3tj7 j7tj6 j6tj11 j11tj15"/>
    </vehicle>
    <vehicle id="HDV_116" type="HDV" depart="314.00">
        <route edges="j2tj6 j6tj11 j11tj10 j10tj9"/>
    </vehicle>
    <vehicle id="CAV_117" type="CAV" depart="315.00">
        <route edges="j14tj10 j10tj5 j5tj4"/>
    </vehicle>
    <vehicle id="HDV_118" type="HDV" depart="316.00">
        <route edges="j14tj10 j10tj5 j5tj4"/>
    </vehicle>
    <vehicle id="HDV_119" type="HDV" depart="317.00">
        <route edges="j4tj5 j5tj6 j6tj11 j11tj15"/>
    </vehicle>
    <vehicle id="CAV_120" type="CAV" depart="321.00">
        <route edges="j14tj10 j10tj5 j5tj4"/>
    </vehicle>
    <vehicle id="HDV_121" type="HDV" depart="321.00">
        <route edges="j15tj11 j11tj6 j6tj5 j5tj1"/>
    </vehicle>
    <vehicle id="HDV_122" type="HDV" depart="322.00">
        <route edges="j15tj11 j11tj6 j6tj5 j5tj1"/>
    </vehicle>
    <vehicle id="CAV_123" type="CAV" depart="329.00">
        <route edges="j2tj6 j6tj5 j5tj4"/>
    </vehicle>
    <vehicle id="HDV_124" type="HDV" depart="333.00">
        <route edges="j15tj11 j11tj6 j6tj5 j5tj1"/>
    </vehicle>
    <vehicle id="HDV_125" type="HDV" depart="334.00">
        <route edges="j3tj7 j7tj12 j12tj11 j11tj10 j10tj9"/>
    </vehicle>
    <vehicle id="CAV_126" type="CAV" depart="337.00">
        <route edges="j9tj10 j10tj5 j5tj1"/>
    </vehicle>
    <vehicle id="HDV_127" type="HDV" depart="338.00">
        <route edges="j14tj10 j10tj5 j5tj6 j6tj7 j7tj8"/>
    </vehicle>
    <vehicle id="HDV_128" type="HDV" depart="347.00">
        <route edges="j2tj6 j6tj7 j7tj8"/>
    </vehicle>
    <vehicle id="CAV_129" type="CAV" depart="350.00">
        <route edges="j16tj12 j12tj11 j11tj10 j10tj14"/>
    </vehicle>
    <vehicle id="HDV_130" type="HDV" depart="351.00">
        <route edges="j14tj10 j10tj5 j5tj6 j6tj7 j7tj3"/>
    </vehicle>
    <vehicle id="HDV_131" type="HDV" depart="355.00">
        <route edges="j1tj5 j5tj6 j6tj7 j7tj3"/>
    </vehicle>
    <vehicle id="CAV_132" type="CAV" depart="356.00">
        <route edges="j9tj10 j10tj11 j11tj15"/>
    </vehicle>
    <vehicle id="HDV_133" type="HDV" depart="358.00">
        <route edges="j15tj11 j11tj6 j6tj2"/>
    </vehicle>
    <vehicle id="HDV_134" type="HDV" depart="363.00">
        <route edges="j2tj6 j6tj5 j5tj4"/>
    </vehicle>
    <vehicle id="CAV_135" type="CAV" depart="364.00">
        <route edges="j1tj5 j5tj6 j6tj7 j7tj12 j12tj16"/>
    </vehicle>
    <vehicle id="HDV_136" type="HDV" depart="367.00">
        <route edges="j14tj10 j10tj5 j5tj4"/>
    </vehicle>
    <vehicle id="HDV_137" type="HDV" depart="373.00">
        <route edges="j14tj10 j10tj5 j5tj1"/>
    </vehicle>
    <vehicle id="CAV_138" type="CAV" depart="374.00">
        <route edges="j13tj12 j12tj11 j11tj15"/>
    </vehicle>
    <vehicle id="HDV_139" type="HDV" depart="374.00">
        <route edges="j15tj11 j11tj6 j6tj5 j5tj4"/>
    </vehicle>
    <vehicle id="HDV_140" type="HDV" depart="376.00">
        <route edges="j1tj5 j5tj6 j6tj7 j7tj8"/>
    </vehicle>
    <vehicle id="CAV_141" type="CAV" depart="377.00">
        <route edges="j14tj10 j10tj5 j5tj6 j6tj7 j7tj8"/>
    </vehicle>
    <vehicle id="HDV_142" type="HDV" depart="379.00">
        <route edges="j4tj5 j5tj6 j6tj2"/>
    </vehicle>
    <vehicle id="HDV_143" type="HDV" depart="380.00">
        <route edges="j2tj6 j6tj11 j11tj15"/>
    </vehicle>
    <vehicle id="CAV_144" type="CAV" depart="381.00">
        <route edges="j13tj12 j12tj11 j11tj6 j6tj2"/>
    </vehicle>
    <vehicle id="HDV_145" type="HDV" depart="381.00">
        <route edges="j15tj11 j11tj6 j6tj5 j5tj4"/>
    </vehicle>
    <vehicle id="HDV_146" type="HDV" depart="382.00">
        <route edges="j2tj6 j6tj11 j11tj10 j10tj14"/>
    </vehicle>
    <vehicle id="CAV_147" type="CAV" depart="382.00">
        <route edges="j8tj7 j7tj12 j12tj16"/>
    </vehicle>
    <vehicle id="HDV_148" type="HDV" depart="382.00">
        <route edges="j9tj10 j10tj5 j5tj1"/>
    </vehicle>
    <vehicle id="HDV_149" type="HDV" depart="383.00">
        <route edges="j8tj7 j7tj12 j12tj16"/>
    </vehicle>
    <vehicle id="CAV_150" type="CAV" depart="386.00">
        <route edges="j13tj12 j12tj11 j11tj10 j10tj9"/>
    </vehicle>
    <vehicle id="HDV_151" type="HDV" depart="390.00">
        <route edges="j8tj7 j7tj6 j6tj5 j5tj1"/>
    </vehicle>
    <vehicle id="HDV_152" type="HDV" depart="392.00">
        <route edges="j14tj10 j10tj11 j11tj6 j6tj2"/>
    </vehicle>
    <vehicle id="CAV_153" type="CAV" depart="397.00">
        <route edges="j3tj7 j7tj6 j6tj5 j5tj1"/>
    </vehicle>
    <vehicle id="HDV_154" type="HDV" depart="398.00">
        <route edges="j2tj6 j6tj7 j7tj12 j12tj16"/>
    </vehicle>
    <vehicle id="HDV_155" type="HDV" depart="400.00">
        <route edges="j9tj10 j10tj11 j11tj12 j12tj16"/>
    </vehicle>
    <vehicle id="CAV_156" type="CAV" depart="400.00">
        <route edges="j14tj10 j10tj5 j5tj6 j6tj7 j7tj3"/>
    </vehicle>
    <vehicle id="HDV_157" type="HDV" depart="401.00">
        <route edges="j2tj6 j6tj11 j11tj10 j10tj14"/>
    </vehicle>
    <vehicle id="HDV_158" type="HDV" depart="403.00">
        <route edges="j4tj5 j5tj6 j6tj7 j7tj12 j12tj16"/>
    </vehicle>
    <vehicle id="CAV_159" type="CAV" depart="406.00">
        <route edges="j2tj6 j6tj11 j11tj10 j10tj14"/>
    </vehicle>
    <vehicle id="HDV_160" type="HDV" depart="407.00">
        <route edges="j13tj12 j12tj11 j11tj10 j10tj9"/>
    </vehicle>
    <vehicle id="HDV_161" type="HDV" depart="412.00">
        <route edges="j16tj12 j12tj7 j7tj6 j6tj2"/>
    </vehicle>
    <vehicle id="CAV_162" type="CAV" depart="415.00">
        <route edges="j3tj7 j7tj6 j6tj5 j5tj10 j10tj14"/>
    </vehicle>
    <vehicle id="HDV_163" type="HDV" depart="418.00">
        <route edges="j13tj12 j12tj11 j11tj6 j6tj2"/>
    </vehicle>
    <vehicle id="HDV_164" type="HDV" depart="422.00">
        <route edges="j8tj7 j7tj6 j6tj2"/>
    </vehicle>
    <vehicle id="CAV_165" type="CAV" depart="424.00">
        <route edges="j2tj6 j6tj11 j11tj10 j10tj14"/>
    </vehicle>
    <vehicle id="HDV_166" type="HDV" depart="433.00">
        <route edges="j14tj10 j10tj11 j11tj12 j12tj16"/>
    </vehicle>
    <vehicle id="HDV_167" type="HDV" depart="433.00">
        <route edges="j16tj12 j12tj11 j11tj10 j10tj14"/>
    </vehicle>
    <vehicle id="CAV_168" type="CAV" depart="434.00">
        <route edges="j16tj12 j12tj7 j7tj6 j6tj5 j5tj4"/>
    </vehicle>
    <vehicle id="HDV_169" type="HDV" depart="434.00">
        <route edges="j8tj7 j7tj6 j6tj2"/>
    </vehicle>
    <vehicle id="HDV_170" type="HDV" depart="435.00">
        <route edges="j4tj5 j5tj10 j10tj14"/>
    </vehicle>
    <vehicle id="CAV_171" type="CAV" depart="443.00">
        <route edges="j2tj6 j6tj11 j11tj15"/>
    </vehicle>
    <vehicle id="HDV_172" type="HDV" depart="443.00">
        <route edges="j4tj5 j5tj6 j6tj7 j7tj8"/>
    </vehicle>
    <vehicle id="HDV_173" type="HDV" depart="445.00">
        <route edges="j4tj5 j5tj6 j6tj7 j7tj12 j12tj16"/>
    </vehicle>
    <vehicle id="CAV_174" type="CAV" depart="449.00">
        <route edges="j1tj5 j5tj6 j6tj7 j7tj3"/>
    </vehicle>
    <vehicle id="HDV_175" type="HDV" depart="452.00">
        <route edges="j2tj6 j6tj11 j11tj10 j10tj14"/>
    </vehicle>
    <vehicle id="HDV_176" type="HDV" depart="452.00">
        <route edges="j3tj7 j7tj12 j12tj16"/>
    </vehicle>
    <vehicle id="CAV_177" type="CAV" depart="452.00">
        <route edges="j4tj5 j5tj10 j10tj14"/>
    </vehicle>
    <vehicle id="HDV_178" type="HDV" depart="459.00">
        <route edges="j16tj12 j12tj7 j7tj8"/>
    </vehicle>
    <vehicle id="HDV_179" type="HDV" depart="460.00">
        <route edges="j8tj7 j7tj12 j12tj16"/>
    </vehicle>
    <vehicle id="CAV_180" type="CAV" depart="466.00">
        <route edges="j2tj6 j6tj11 j11tj10 j10tj9"/>
    </vehicle>
    <vehicle id="HDV_181" type="HDV" depart="466.00">
        <route edges="j8tj7 j7tj6 j6tj5 j5tj10 j10tj14"/>
    </vehicle>
    <vehicle id="HDV_182" type="HDV" depart="467.00">
        <route edges="j4tj5 j5tj10 j10tj9"/>
    </vehicle>
    <vehicle id="CAV_183" type="CAV" depart="467.00">
        <route edges="j13tj12 j12tj11 j11tj10 j10tj5 j5tj1"/>
    </vehicle>
    <vehicle id="HDV_184" type="HDV" depart="467.00">
        <route edges="j2tj6 j6tj11 j11tj12 j12tj13"/>
    </vehicle>
    <vehicle id="HDV_185" type="HDV" depart="469.00">
        <route edges="j14tj10 j10tj11 j11tj12 j12tj13"/>
    </vehicle>
    <vehicle id="CAV_186" type="CAV" depart="472.00">
        <route edges="j1tj5 j5tj6 j6tj11 j11tj15"/>
    </vehicle>
    <vehicle id="HDV_187" type="HDV" depart="473.00">
        <route edges="j13tj12 j12tj11 j11tj15"/>
    </vehicle>
    <vehicle id="HDV_188" type="HDV" depart="474.00">
        <route edges="j8tj7 j7tj12 j12tj16"/>
    </vehicle>
    <vehicle id="CAV_189" type="CAV" depart="474.00">
        <route edges="j2tj6 j6tj5 j5tj4"/>
    </vehicle>
    <vehicle id="HDV_190" type="HDV" depart="475.00">
        <route edges="j15tj11 j11tj6 j6tj5 j5tj4"/>
    </vehicle>
    <vehicle id="HDV_191" type="HDV" depart="475.00">
        <route edges="j9tj10 j10tj11 j11tj15"/>
    </vehicle>
    <vehicle id="CAV_192" type="CAV" depart="477.00">
        <route edges="j13tj12 j12tj7 j7tj3"/>
    </vehicle>
    <vehicle id="HDV_193" type="HDV" depart="477.00">
        <route edges="j16tj12 j12tj7 j7tj6 j6tj5 j5tj4"/>
    </vehicle>
    <vehicle id="HDV_194" type="HDV" depart="479.00">
        <route edges="j15tj11 j11tj6 j6tj2"/>
    </vehicle>
    <vehicle id="CAV_195" type="CAV" depart="481.00">
        <route edges="j3tj7 j7tj12 j12tj16"/>
    </vehicle>
    <vehicle id="HDV_196" type="HDV" depart="484.00">
        <route edges="j3tj7 j7tj6 j6tj11 j11tj15"/>
    </vehicle>
    <vehicle id="HDV_197" type="HDV" depart="488.00">
        <route edges="j16tj12 j12tj7 j7tj3"/>
    </vehicle>
    <vehicle id="CAV_198" type="CAV" depart="491.00">
        <route edges="j2tj6 j6tj7 j7tj12 j12tj16"/>
    </vehicle>
    <vehicle id="HDV_199" type="HDV" depart="495.00">
        <route edges="j4tj5 j5tj6 j6tj7 j7tj12 j12tj16"/>
    </vehicle>
    <vehicle id="HDV_200" type="HDV" depart="495.00">
        <route edges="j14tj10 j10tj11 j11tj12 j12tj13"/>
    </vehicle>
    <vehicle id="CAV_201" type="CAV" depart="496.00">
        <route edges="j2tj6 j6tj7 j7tj12 j12tj16"/>
    </vehicle>
    <vehicle id="HDV_202" type="HDV" depart="497.00">
        <route edges="j15tj11 j11tj12 j12tj13"/>
    </vehicle>
    <vehicle id="HDV_203" type="HDV" depart="503.00">
        <route edges="j3tj7 j7tj12 j12tj16"/>
    </vehicle>
    <vehicle id="CAV_204" type="CAV" depart="508.00">
        <route edges="j9tj10 j10tj11 j11tj12 j12tj7 j7tj3"/>
    </vehicle>
    <vehicle id="HDV_205" type="HDV" depart="509.00">
        <route edges="j13tj12 j12tj11 j11tj15"/>
    </vehicle>
    <vehicle id="HDV_206" type="HDV" depart="510.00">
        <route edges="j16tj12 j12tj7 j7tj3"/>
    </vehicle>
    <vehicle id="CAV_207" type="CAV" depart="510.00">
        <route edges="j9tj10 j10tj11 j11tj6 j6tj7 j7tj8"/>
    </vehicle>
    <vehicle id="HDV_208" type="HDV" depart="512.00">
        <route edges="j2tj6 j6tj7 j7tj12 j12tj16"/>
    </vehicle>
    <vehicle id="HDV_209" type="HDV" depart="514.00">
        <route edges="j2tj6 j6tj11 j11tj15"/>
    </vehicle>
    <vehicle id="CAV_210" type="CAV" depart="521.00">
        <route edges="j1tj5 j5tj6 j6tj11 j11tj15"/>
    </vehicle>
    <vehicle id="HDV_211" type="HDV" depart="523.00">
        <route edges="j8tj7 j7tj6 j6tj5 j5tj1"/>
    </vehicle>
    <vehicle id="HDV_212" type="HDV" depart="526.00">
        <route edges="j13tj12 j12tj7 j7tj6 j6tj5 j5tj4"/>
    </vehicle>
    <vehicle id="CAV_213" type="CAV" depart="526.00">
        <route edges="j15tj11 j11tj6 j6tj5 j5tj4"/>
    </vehicle>
    <vehicle id="HDV_214" type="HDV" depart="530.00">
        <route edges="j3tj7 j7tj6 j6tj11 j11tj15"/>
    </vehicle>
    <vehicle id="HDV_215" type="HDV" depart="535.00">
        <route edges="j16tj12 j12tj7 j7tj3"/>
    </vehicle>
    <vehicle id="CAV_216" type="CAV" depart="535.00">
        <route edges="j4tj5 j5tj6 j6tj7 j7tj8"/>
    </vehicle>
    <vehicle id="HDV_217" type="HDV" depart="538.00">
        <route edges="j3tj7 j7tj12 j12tj16"/>
    </vehicle>
    <vehicle id="HDV_218" type="HDV" depart="539.00">
        <route edges="j9tj10 j10tj11 j11tj12 j12tj13"/>
    </vehicle>
    <vehicle id="CAV_219" type="CAV" depart="540.00">
        <route edges="j13tj12 j12tj11 j11tj10 j10tj14"/>
    </vehicle>
    <vehicle id="HDV_220" type="HDV" depart="541.00">
        <route edges="j4tj5 j5tj6 j6tj11 j11tj15"/>
    </vehicle>
    <vehicle id="HDV_221" type="HDV" depart="541.00">
        <route edges="j16tj12 j12tj7 j7tj6 j6tj5 j5tj4"/>
    </vehicle>
    <vehicle id="CAV_222" type="CAV" depart="545.00">
        <route edges="j3tj7 j7tj6 j6tj5 j5tj1"/>
    </vehicle>
    <vehicle id="HDV_223" type="HDV" depart="548.00">
        <route edges="j16tj12 j12tj7 j7tj6 j6tj5 j5tj4"/>
    </vehicle>
    <vehicle id="HDV_224" type="HDV" depart="553.00">
        <route edges="j3tj7 j7tj12 j12tj13"/>
    </vehicle>
    <vehicle id="CAV_225" type="CAV" depart="555.00">
        <route edges="j15tj11 j11tj12 j12tj13"/>
    </vehicle>
    <vehicle id="HDV_226" type="HDV" depart="557.00">
        <route edges="j13tj12 j12tj11 j11tj15"/>
    </vehicle>
    <vehicle id="HDV_227" type="HDV" depart="559.00">
        <route edges="j14tj10 j10tj5 j5tj6 j6tj7 j7tj8"/>
    </vehicle>
    <vehicle id="CAV_228" type="CAV" depart="560.00">
        <route edges="j13tj12 j12tj7 j7tj3"/>
    </vehicle>
    <vehicle id="HDV_229" type="HDV" depart="564.00">
        <route edges="j9tj10 j10tj11 j11tj12 j12tj16"/>
    </vehicle>
    <vehicle id="HDV_230" type="HDV" depart="564.00">
        <route edges="j9tj10 j10tj11 j11tj6 j6tj2"/>
    </vehicle>
    <vehicle id="CAV_231" type="CAV" depart="566.00">
        <route edges="j14tj10 j10tj5 j5tj4"/>
    </vehicle>
    <vehicle id="HDV_232" type="HDV" depart="569.00">
        <route edges="j3tj7 j7tj12 j12tj16"/>
    </vehicle>
    <vehicle id="HDV_233" type="HDV" depart="570.00">
        <route edges="j3tj7 j7tj6 j6tj11 j11tj15"/>
    </vehicle>
    <vehicle id="CAV_234" type="CAV" depart="573.00">
        <route edges="j16tj12 j12tj11 j11tj10 j10tj14"/>
    </vehicle>
    <vehicle id="HDV_235" type="HDV" depart="578.00">
        <route edges="j9tj10 j10tj5 j5tj1"/>
    </vehicle>
    <vehicle id="HDV_236" type="HDV" depart="581.00">
        <route edges="j14tj10 j10tj11 j11tj6 j6tj2"/>
    </vehicle>
    <vehicle id="CAV_237" type="CAV" depart="581.00">
        <route edges="j3tj7 j7tj12 j12tj13"/>
    </vehicle>
    <vehicle id="HDV_238" type="HDV" depart="582.00">
        <route edges="j4tj5 j5tj6 j6tj7 j7tj8"/>
    </vehicle>
    <vehicle id="HDV_239" type="HDV" depart="583.00">
        <route edges="j16tj12 j12tj7 j7tj8"/>
    </vehicle>
    <vehicle id="CAV_240" type="CAV" depart="589.00">
        <route edges="j14tj10 j10tj11 j11tj6 j6tj2"/>
    </vehicle>
    <vehicle id="HDV_241" type="HDV" depart="590.00">
        <route edges="j13tj12 j12tj7 j7tj3"/>
    </vehicle>
    <vehicle id="HDV_242" type="HDV" depart="590.00">
        <route edges="j3tj7 j7tj6 j6tj5 j5tj10 j10tj14"/>
    </vehicle>
    <vehicle id="CAV_243" type="CAV" depart="591.00">
        <route edges="j9tj10 j10tj11 j11tj6 j6tj7 j7tj8"/>
    </vehicle>
    <vehicle id="HDV_244" type="HDV" depart="595.00">
        <route edges="j13tj12 j12tj11 j11tj10 j10tj5 j5tj1"/>
    </vehicle>