<?xml version="1.0" encoding="UTF-8"?>

<!-- generated on 2024-11-06 16:16:29 by Eclipse SUMO netedit Version 1.21.0
<neteditConfiguration xmlns:xsi="http://www.w3.org/2001/XMLSchema-instance" xsi:noNamespaceSchemaLocation="http://sumo.dlr.de/xsd/neteditConfiguration.xsd">

    <input>
        <sumo-net-file value="E:\BITMaster\Projects\Multi_Intersection_Sim\NewMap\try2\Map.net.xml"/>
    </input>

    <output>
        <output-file value="E:\BITMaster\Projects\Multi_Intersection_Sim\NewMap\try2\Map.net.xml"/>
    </output>

    <processing>
        <geometry.min-radius.fix.railways value="false"/>
        <geometry.max-grade.fix value="false"/>
        <offset.disable-normalization value="true"/>
        <lefthand value="0"/>
    </processing>

    <junctions>
        <no-turnarounds value="true"/>
        <junctions.corner-detail value="5"/>
        <junctions.limit-turn-speed value="5.50"/>
        <rectangular-lane-cut value="0"/>
    </junctions>

    <pedestrian>
        <walkingareas value="0"/>
    </pedestrian>

</neteditConfiguration>
-->

<net version="1.20" junctionCornerDetail="5" limitTurnSpeed="5.50" xmlns:xsi="http://www.w3.org/2001/XMLSchema-instance" xsi:noNamespaceSchemaLocation="http://sumo.dlr.de/xsd/net_file.xsd">

    <location netOffset="0.00,0.00" convBoundary="-67.90,-563.45,1460.63,235.17" origBoundary="-10000000000.00,-10000000000.00,10000000000.00,10000000000.00" projParameter="!"/>

    <edge id=":j1_0" function="internal">
        <lane id=":j1_0_0" index="0" speed="3.65" length="4.67" shape="371.30,195.23 370.50,196.44 369.71,196.84 368.90,196.44 368.10,195.25"/>
    </edge>
    <edge id=":j10_0" function="internal">
        <lane id=":j10_0_0" index="0" speed="6.49" length="9.03" shape="360.26,-270.60 359.90,-273.06 358.84,-274.80 357.08,-275.83 354.63,-276.15"/>
    </edge>
    <edge id=":j10_1" function="internal">
        <lane id=":j10_1_0" index="0" speed="13.89" length="27.41" shape="363.46,-270.61 363.56,-298.03"/>
    </edge>
    <edge id=":j10_2" function="internal">
        <lane id=":j10_2_0" index="0" speed="10.36" length="24.61" shape="366.66,-270.62 367.59,-277.31 370.44,-282.08 375.21,-284.93 381.89,-285.86"/>
    </edge>
    <edge id=":j10_3" function="internal">
        <lane id=":j10_3_0" index="0" speed="3.65" length="2.34" shape="366.66,-270.62 367.45,-271.82 368.25,-272.22"/>
    </edge>
    <edge id=":j10_16" function="internal">
        <lane id=":j10_16_0" index="0" speed="3.65" length="2.34" shape="368.25,-272.22 369.05,-271.83 369.86,-270.63"/>
    </edge>
    <edge id=":j10_4" function="internal">
        <lane id=":j10_4_0" index="0" speed="6.50" length="9.06" shape="381.86,-276.26 379.40,-275.92 377.65,-274.87 376.60,-273.11 376.26,-270.65"/>
    </edge>
    <edge id=":j10_5" function="internal">
        <lane id=":j10_5_0" index="0" speed="13.89" length="27.28" shape="381.87,-279.46 354.59,-279.35"/>
    </edge>
    <edge id=":j10_6" function="internal">
        <lane id=":j10_6_0" index="0" speed="10.35" length="24.59" shape="381.88,-282.66 375.21,-283.64 370.46,-286.52 367.65,-291.31 366.76,-297.99"/>
    </edge>
    <edge id=":j10_7" function="internal">
        <lane id=":j10_7_0" index="0" speed="3.65" length="2.34" shape="381.88,-282.66 380.68,-283.46 380.29,-284.27"/>
    </edge>
    <edge id=":j10_17" function="internal">
        <lane id=":j10_17_0" index="0" speed="3.65" length="2.34" shape="380.29,-284.27 380.69,-285.06 381.89,-285.86"/>
    </edge>
    <edge id=":j10_8" function="internal">
        <lane id=":j10_8_0" index="0" speed="6.49" length="9.03" shape="376.36,-297.89 376.69,-295.43 377.72,-293.68 379.46,-292.62 381.92,-292.26"/>
    </edge>
    <edge id=":j10_9" function="internal">
        <lane id=":j10_9_0" index="0" speed="13.89" length="27.29" shape="373.16,-297.92 373.06,-270.64"/>
    </edge>
    <edge id=":j10_10" function="internal">
        <lane id=":j10_10_0" index="0" speed="10.49" length="24.73" shape="369.96,-297.96 368.94,-291.28 366.03,-286.49 361.24,-283.58 354.55,-282.55"/>
    </edge>
    <edge id=":j10_11" function="internal">
        <lane id=":j10_11_0" index="0" speed="3.65" length="2.34" shape="369.96,-297.96 369.15,-296.77 368.35,-296.38"/>
    </edge>
    <edge id=":j10_18" function="internal">
        <lane id=":j10_18_0" index="0" speed="3.65" length="2.34" shape="368.35,-296.38 367.55,-296.78 366.76,-297.99"/>
    </edge>
    <edge id=":j10_12" function="internal">
        <lane id=":j10_12_0" index="0" speed="6.71" length="9.49" shape="354.44,-292.15 357.01,-292.55 358.85,-293.66 359.97,-295.50 360.36,-298.06"/>
    </edge>
    <edge id=":j10_13" function="internal">
        <lane id=":j10_13_0" index="0" speed="13.89" length="27.42" shape="354.48,-288.95 381.90,-289.06"/>
    </edge>
    <edge id=":j10_14" function="internal">
        <lane id=":j10_14_0" index="0" speed="10.35" length="24.61" shape="354.52,-285.75 361.21,-284.87 366.00,-282.06 368.88,-277.31 369.86,-270.63"/>
    </edge>
    <edge id=":j10_15" function="internal">
        <lane id=":j10_15_0" index="0" speed="3.65" length="2.34" shape="354.52,-285.75 355.73,-284.97 356.14,-284.17"/>
    </edge>
    <edge id=":j10_19" function="internal">
        <lane id=":j10_19_0" index="0" speed="3.65" length="2.34" shape="356.14,-284.17 355.74,-283.37 354.55,-282.55"/>
    </edge>
    <edge id=":j11_0" function="internal">
        <lane id=":j11_0_0" index="0" speed="6.56" length="9.14" shape="737.76,-269.22 737.40,-271.72 736.34,-273.52 734.59,-274.59 732.14,-274.96"/>
    </edge>
    <edge id=":j11_1" function="internal">
        <lane id=":j11_1_0" index="0" speed="13.89" length="27.51" shape="740.96,-269.24 741.10,-296.75"/>
    </edge>
    <edge id=":j11_2" function="internal">
        <lane id=":j11_2_0" index="0" speed="10.38" length="24.66" shape="744.16,-269.26 745.08,-275.93 747.94,-280.70 752.72,-283.57 759.45,-284.53"/>
    </edge>
    <edge id=":j11_3" function="internal">
        <lane id=":j11_3_0" index="0" speed="3.65" length="2.34" shape="744.16,-269.26 744.95,-270.46 745.75,-270.87"/>
    </edge>
    <edge id=":j11_16" function="internal">
        <lane id=":j11_16_0" index="0" speed="3.65" length="2.34" shape="745.75,-270.87 746.55,-270.47 747.36,-269.28"/>
    </edge>
    <edge id=":j11_4" function="internal">
        <lane id=":j11_4_0" index="0" speed="6.53" length="9.13" shape="759.46,-274.93 756.95,-274.57 755.17,-273.52 754.10,-271.77 753.76,-269.31"/>
    </edge>
    <edge id=":j11_5" function="internal">
        <lane id=":j11_5_0" index="0" speed="13.89" length="27.30" shape="759.45,-278.13 732.15,-278.16"/>
    </edge>
    <edge id=":j11_6" function="internal">
        <lane id=":j11_6_0" index="0" speed="10.34" length="24.71" shape="759.45,-281.33 752.73,-282.28 747.96,-285.16 745.15,-289.97 744.30,-296.70"/>
    </edge>
    <edge id=":j11_7" function="internal">
        <lane id=":j11_7_0" index="0" speed="3.65" length="2.34" shape="759.45,-281.33 758.25,-282.13 757.85,-282.93"/>
    </edge>
    <edge id=":j11_17" function="internal">
        <lane id=":j11_17_0" index="0" speed="3.65" length="2.34" shape="757.85,-282.93 758.25,-283.73 759.45,-284.53"/>
    </edge>
    <edge id=":j11_8" function="internal">
        <lane id=":j11_8_0" index="0" speed="6.47" length="9.03" shape="753.90,-296.55 754.21,-294.09 755.24,-292.33 756.98,-291.28 759.44,-290.93"/>
    </edge>
    <edge id=":j11_9" function="internal">
        <lane id=":j11_9_0" index="0" speed="13.89" length="27.30" shape="750.70,-296.60 750.56,-269.30"/>
    </edge>
    <edge id=":j11_10" function="internal">
        <lane id=":j11_10_0" index="0" speed="10.43" length="24.63" shape="747.50,-296.65 746.45,-289.94 743.54,-285.15 738.78,-282.29 732.16,-281.36"/>
    </edge>
    <edge id=":j11_11" function="internal">
        <lane id=":j11_11_0" index="0" speed="3.65" length="2.34" shape="747.50,-296.65 746.68,-295.46 745.87,-295.08"/>
    </edge>
    <edge id=":j11_18" function="internal">
        <lane id=":j11_18_0" index="0" speed="3.65" length="2.34" shape="745.87,-295.08 745.08,-295.49 744.30,-296.70"/>
    </edge>
    <edge id=":j11_12" function="internal">
        <lane id=":j11_12_0" index="0" speed="6.62" length="9.28" shape="732.20,-290.96 734.66,-291.32 736.43,-292.41 737.51,-294.24 737.90,-296.80"/>
    </edge>
    <edge id=":j11_13" function="internal">
        <lane id=":j11_13_0" index="0" speed="13.89" length="27.25" shape="732.19,-287.76 759.44,-287.73"/>
    </edge>
    <edge id=":j11_14" function="internal">
        <lane id=":j11_14_0" index="0" speed="10.40" length="24.51" shape="732.18,-284.56 738.79,-283.58 743.52,-280.71 746.38,-275.94 747.36,-269.28"/>
    </edge>
    <edge id=":j11_15" function="internal">
        <lane id=":j11_15_0" index="0" speed="3.65" length="2.34" shape="732.18,-284.56 733.37,-283.76 733.77,-282.95"/>
    </edge>
    <edge id=":j11_19" function="internal">
        <lane id=":j11_19_0" index="0" speed="3.65" length="2.34" shape="733.77,-282.95 733.37,-282.16 732.16,-281.36"/>
    </edge>
    <edge id=":j12_0" function="internal">
        <lane id=":j12_0_0" index="0" speed="6.83" length="9.83" shape="1141.02,-275.73 1138.31,-275.30 1136.36,-274.15 1135.19,-272.28 1134.79,-269.69"/>
    </edge>
    <edge id=":j12_1" function="internal">
        <lane id=":j12_1_0" index="0" speed="13.89" length="27.74" shape="1140.95,-278.93 1113.21,-278.59"/>
    </edge>
    <edge id=":j12_2" function="internal">
        <lane id=":j12_2_0" index="0" speed="10.31" length="24.94" shape="1140.87,-282.13 1134.05,-282.95 1129.21,-285.77 1126.35,-290.59 1125.48,-297.40"/>
    </edge>
    <edge id=":j12_3" function="internal">
        <lane id=":j12_3_0" index="0" speed="3.65" length="2.34" shape="1140.87,-282.13 1139.65,-282.90 1139.24,-283.70"/>
    </edge>
    <edge id=":j12_16" function="internal">
        <lane id=":j12_16_0" index="0" speed="3.65" length="2.34" shape="1139.24,-283.70 1139.62,-284.50 1140.80,-285.33"/>
    </edge>
    <edge id=":j12_4" function="internal">
        <lane id=":j12_4_0" index="0" speed="6.43" length="9.03" shape="1135.07,-297.26 1135.39,-294.79 1136.43,-293.05 1138.18,-292.03 1140.65,-291.73"/>
    </edge>
    <edge id=":j12_5" function="internal">
        <lane id=":j12_5_0" index="0" speed="13.89" length="27.60" shape="1131.87,-297.31 1131.59,-269.71"/>
    </edge>
    <edge id=":j12_6" function="internal">
        <lane id=":j12_6_0" index="0" speed="10.51" length="24.94" shape="1128.68,-297.35 1127.62,-290.55 1124.69,-285.69 1119.89,-282.77 1113.20,-281.79"/>
    </edge>
    <edge id=":j12_7" function="internal">
        <lane id=":j12_7_0" index="0" speed="3.65" length="2.34" shape="1128.68,-297.35 1127.86,-296.17 1127.05,-295.78"/>
    </edge>
    <edge id=":j12_17" function="internal">
        <lane id=":j12_17_0" index="0" speed="3.65" length="2.34" shape="1127.05,-295.78 1126.26,-296.19 1125.48,-297.40"/>
    </edge>
    <edge id=":j12_8" function="internal">
        <lane id=":j12_8_0" index="0" speed="6.74" length="9.63" shape="1113.19,-291.39 1115.73,-291.78 1117.56,-292.92 1118.67,-294.83 1119.08,-297.50"/>
    </edge>
    <edge id=":j12_9" function="internal">
        <lane id=":j12_9_0" index="0" speed="13.89" length="27.53" shape="1113.19,-288.19 1140.73,-288.53"/>
    </edge>
    <edge id=":j12_10" function="internal">
        <lane id=":j12_10_0" index="0" speed="10.35" length="24.60" shape="1113.20,-284.99 1119.88,-284.05 1124.64,-281.19 1127.47,-276.42 1128.39,-269.73"/>
    </edge>
    <edge id=":j12_11" function="internal">
        <lane id=":j12_11_0" index="0" speed="3.65" length="2.34" shape="1113.20,-284.99 1114.40,-284.19 1114.80,-283.39"/>
    </edge>
    <edge id=":j12_18" function="internal">
        <lane id=":j12_18_0" index="0" speed="3.65" length="2.34" shape="1114.80,-283.39 1114.40,-282.59 1113.20,-281.79"/>
    </edge>
    <edge id=":j12_12" function="internal">
        <lane id=":j12_12_0" index="0" speed="6.49" length="9.03" shape="1118.79,-269.79 1118.45,-272.24 1117.41,-273.99 1115.66,-275.04 1113.21,-275.39"/>
    </edge>
    <edge id=":j12_13" function="internal">
        <lane id=":j12_13_0" index="0" speed="13.89" length="27.68" shape="1121.99,-269.77 1122.28,-297.45"/>
    </edge>
    <edge id=":j12_14" function="internal">
        <lane id=":j12_14_0" index="0" speed="10.57" length="24.99" shape="1125.19,-269.75 1126.20,-276.43 1129.14,-281.26 1134.00,-284.22 1140.80,-285.33"/>
    </edge>
    <edge id=":j12_15" function="internal">
        <lane id=":j12_15_0" index="0" speed="3.65" length="2.34" shape="1125.19,-269.75 1126.00,-270.95 1126.80,-271.34"/>
    </edge>
    <edge id=":j12_19" function="internal">
        <lane id=":j12_19_0" index="0" speed="3.65" length="2.34" shape="1126.80,-271.34 1127.60,-270.94 1128.39,-269.73"/>
    </edge>
    <edge id=":j13_0" function="internal">
        <lane id=":j13_0_0" index="0" speed="3.65" length="4.67" shape="1430.01,-292.00 1431.23,-291.23 1431.65,-290.44 1431.27,-289.63 1430.09,-288.80"/>
    </edge>
    <edge id=":j14_0" function="internal">
        <lane id=":j14_0_0" index="0" speed="3.65" length="4.67" shape="369.56,-563.47 370.37,-564.66 371.18,-565.05 371.97,-564.64 372.76,-563.43"/>
    </edge>
    <edge id=":j15_0" function="internal">
        <lane id=":j15_0_0" index="0" speed="3.65" length="4.67" shape="748.39,-552.72 749.21,-553.90 750.02,-554.29 750.81,-553.88 751.59,-552.66"/>
    </edge>
    <edge id=":j16_0" function="internal">
        <lane id=":j16_0_0" index="0" speed="3.65" length="4.67" shape="1129.31,-558.17 1130.13,-559.36 1130.93,-559.75 1131.73,-559.34 1132.51,-558.13"/>
    </edge>
    <edge id=":j2_0" function="internal">
        <lane id=":j2_0_0" index="0" speed="3.65" length="4.67" shape="747.28,214.32 746.47,215.52 745.67,215.91 744.87,215.50 744.08,214.30"/>
    </edge>
    <edge id=":j3_0" function="internal">
        <lane id=":j3_0_0" index="0" speed="3.65" length="4.67" shape="1126.72,235.17 1125.92,236.37 1125.12,236.77 1124.32,236.37 1123.52,235.17"/>
    </edge>
    <edge id=":j4_0" function="internal">
        <lane id=":j4_0_0" index="0" speed="3.65" length="4.67" shape="-67.90,-3.40 -69.10,-4.20 -69.50,-5.00 -69.10,-5.80 -67.90,-6.60"/>
    </edge>
    <edge id=":j5_0" function="internal">
        <lane id=":j5_0_0" index="0" speed="6.54" length="9.11" shape="361.00,8.48 360.64,6.01 359.57,4.24 357.80,3.19 355.33,2.84"/>
    </edge>
    <edge id=":j5_1" function="internal">
        <lane id=":j5_1_0" index="0" speed="13.89" length="27.24" shape="364.20,8.47 364.11,-18.78"/>
    </edge>
    <edge id=":j5_2" function="internal">
        <lane id=":j5_2_0" index="0" speed="10.36" length="24.53" shape="367.40,8.45 368.33,1.79 371.16,-2.97 375.91,-5.83 382.56,-6.80"/>
    </edge>
    <edge id=":j5_3" function="internal">
        <lane id=":j5_3_0" index="0" speed="3.65" length="2.34" shape="367.40,8.45 368.20,7.25 368.99,6.85"/>
    </edge>
    <edge id=":j5_16" function="internal">
        <lane id=":j5_16_0" index="0" speed="3.65" length="2.34" shape="368.99,6.85 369.80,7.24 370.60,8.44"/>
    </edge>
    <edge id=":j5_4" function="internal">
        <lane id=":j5_4_0" index="0" speed="6.50" length="9.03" shape="382.58,2.80 380.13,3.16 378.39,4.21 377.34,5.97 377.00,8.42"/>
    </edge>
    <edge id=":j5_5" function="internal">
        <lane id=":j5_5_0" index="0" speed="13.89" length="27.25" shape="382.58,-0.40 355.33,-0.36"/>
    </edge>
    <edge id=":j5_6" function="internal">
        <lane id=":j5_6_0" index="0" speed="10.37" length="24.55" shape="382.57,-3.60 375.91,-4.53 371.15,-7.38 368.28,-12.13 367.31,-18.79"/>
    </edge>
    <edge id=":j5_7" function="internal">
        <lane id=":j5_7_0" index="0" speed="3.65" length="2.34" shape="382.57,-3.60 381.37,-4.39 380.97,-5.19"/>
    </edge>
    <edge id=":j5_17" function="internal">
        <lane id=":j5_17_0" index="0" speed="3.65" length="2.34" shape="380.97,-5.19 381.37,-5.99 382.56,-6.80"/>
    </edge>
    <edge id=":j5_8" function="internal">
        <lane id=":j5_8_0" index="0" speed="6.52" length="9.07" shape="376.91,-18.81 377.27,-16.35 378.33,-14.59 380.09,-13.54 382.55,-13.20"/>
    </edge>
    <edge id=":j5_9" function="internal">
        <lane id=":j5_9_0" index="0" speed="13.89" length="27.23" shape="373.71,-18.80 373.80,8.43"/>
    </edge>
    <edge id=":j5_10" function="internal">
        <lane id=":j5_10_0" index="0" speed="10.36" length="24.54" shape="370.51,-18.80 369.58,-12.13 366.74,-7.38 361.99,-4.52 355.33,-3.56"/>
    </edge>
    <edge id=":j5_11" function="internal">
        <lane id=":j5_11_0" index="0" speed="3.65" length="2.34" shape="370.51,-18.80 369.72,-17.59 368.92,-17.19"/>
    </edge>
    <edge id=":j5_18" function="internal">
        <lane id=":j5_18_0" index="0" speed="3.65" length="2.34" shape="368.92,-17.19 368.12,-17.59 367.31,-18.79"/>
    </edge>
    <edge id=":j5_12" function="internal">
        <lane id=":j5_12_0" index="0" speed="6.50" length="9.03" shape="355.33,-13.16 357.78,-13.52 359.52,-14.57 360.57,-16.32 360.91,-18.77"/>
    </edge>
    <edge id=":j5_13" function="internal">
        <lane id=":j5_13_0" index="0" speed="13.89" length="27.23" shape="355.33,-9.96 382.56,-10.00"/>
    </edge>
    <edge id=":j5_14" function="internal">
        <lane id=":j5_14_0" index="0" speed="10.39" length="24.56" shape="355.33,-6.76 361.99,-5.82 366.75,-2.97 369.63,1.79 370.60,8.44"/>
    </edge>
    <edge id=":j5_15" function="internal">
        <lane id=":j5_15_0" index="0" speed="3.65" length="2.34" shape="355.33,-6.76 356.53,-5.97 356.93,-5.17"/>
    </edge>
    <edge id=":j5_19" function="internal">
        <lane id=":j5_19_0" index="0" speed="3.65" length="2.34" shape="356.93,-5.17 356.53,-4.37 355.33,-3.56"/>
    </edge>
    <edge id=":j6_0" function="internal">
        <lane id=":j6_0_0" index="0" speed="6.55" length="9.13" shape="760.81,2.15 758.36,2.50 756.60,3.56 755.54,5.35 755.17,7.85"/>
    </edge>
    <edge id=":j6_1" function="internal">
        <lane id=":j6_1_0" index="0" speed="13.89" length="27.23" shape="760.82,-1.05 733.59,-1.07"/>
    </edge>
    <edge id=":j6_2" function="internal">
        <lane id=":j6_2_0" index="0" speed="10.41" length="24.55" shape="760.83,-4.25 754.20,-5.23 749.44,-8.10 746.58,-12.86 745.59,-19.53"/>
    </edge>
    <edge id=":j6_3" function="internal">
        <lane id=":j6_3_0" index="0" speed="3.65" length="2.34" shape="760.83,-4.25 759.63,-5.06 759.24,-5.86"/>
    </edge>
    <edge id=":j6_16" function="internal">
        <lane id=":j6_16_0" index="0" speed="3.65" length="2.34" shape="759.24,-5.86 759.64,-6.66 760.84,-7.45"/>
    </edge>
    <edge id=":j6_4" function="internal">
        <lane id=":j6_4_0" index="0" speed="6.58" length="9.18" shape="755.19,-19.58 755.56,-17.08 756.63,-15.29 758.39,-14.22 760.86,-13.85"/>
    </edge>
    <edge id=":j6_5" function="internal">
        <lane id=":j6_5_0" index="0" speed="13.89" length="27.39" shape="751.99,-19.56 751.97,7.82"/>
    </edge>
    <edge id=":j6_6" function="internal">
        <lane id=":j6_6_0" index="0" speed="10.37" length="24.60" shape="748.79,-19.55 747.87,-12.88 745.03,-8.11 740.27,-5.24 733.58,-4.27"/>
    </edge>
    <edge id=":j6_7" function="internal">
        <lane id=":j6_7_0" index="0" speed="3.65" length="2.34" shape="748.79,-19.55 748.00,-18.34 747.20,-17.94"/>
    </edge>
    <edge id=":j6_17" function="internal">
        <lane id=":j6_17_0" index="0" speed="3.65" length="2.34" shape="747.20,-17.94 746.40,-18.33 745.59,-19.53"/>
    </edge>
    <edge id=":j6_8" function="internal">
        <lane id=":j6_8_0" index="0" speed="6.51" length="9.07" shape="733.57,-13.87 736.04,-14.23 737.80,-15.28 738.85,-17.04 739.19,-19.49"/>
    </edge>
    <edge id=":j6_9" function="internal">
        <lane id=":j6_9_0" index="0" speed="13.89" length="27.28" shape="733.57,-10.67 760.85,-10.65"/>
    </edge>
    <edge id=":j6_10" function="internal">
        <lane id=":j6_10_0" index="0" speed="10.35" length="24.62" shape="733.58,-7.47 740.27,-6.53 745.03,-3.67 747.86,1.11 748.77,7.80"/>
    </edge>
    <edge id=":j6_11" function="internal">
        <lane id=":j6_11_0" index="0" speed="3.65" length="2.34" shape="733.58,-7.47 734.78,-6.68 735.18,-5.88"/>
    </edge>
    <edge id=":j6_18" function="internal">
        <lane id=":j6_18_0" index="0" speed="3.65" length="2.34" shape="735.18,-5.88 734.78,-5.08 733.58,-4.27"/>
    </edge>
    <edge id=":j6_12" function="internal">
        <lane id=":j6_12_0" index="0" speed="6.49" length="9.03" shape="739.17,7.73 738.84,5.27 737.80,3.52 736.05,2.47 733.60,2.13"/>
    </edge>
    <edge id=":j6_13" function="internal">
        <lane id=":j6_13_0" index="0" speed="13.89" length="27.26" shape="742.37,7.75 742.39,-19.51"/>
    </edge>
    <edge id=":j6_14" function="internal">
        <lane id=":j6_14_0" index="0" speed="10.39" length="24.57" shape="745.57,7.78 746.57,1.09 749.44,-3.67 754.20,-6.52 760.84,-7.45"/>
    </edge>
    <edge id=":j6_15" function="internal">
        <lane id=":j6_15_0" index="0" speed="3.65" length="2.34" shape="745.57,7.78 746.38,6.58 747.18,6.19"/>
    </edge>
    <edge id=":j6_19" function="internal">
        <lane id=":j6_19_0" index="0" speed="3.65" length="2.34" shape="747.18,6.19 747.98,6.59 748.77,7.80"/>
    </edge>
    <edge id=":j7_0" function="internal">
        <lane id=":j7_0_0" index="0" speed="6.71" length="9.52" shape="1139.23,3.20 1136.60,3.61 1134.73,4.72 1133.60,6.53 1133.22,9.04"/>
    </edge>
    <edge id=":j7_1" function="internal">
        <lane id=":j7_1_0" index="0" speed="13.89" length="27.54" shape="1139.17,-0.00 1111.63,0.22"/>
    </edge>
    <edge id=":j7_2" function="internal">
        <lane id=":j7_2_0" index="0" speed="10.33" length="24.80" shape="1139.11,-3.20 1132.34,-4.04 1127.51,-6.85 1124.64,-11.63 1123.71,-18.39"/>
    </edge>
    <edge id=":j7_3" function="internal">
        <lane id=":j7_3_0" index="0" speed="3.65" length="2.34" shape="1139.11,-3.20 1137.89,-3.98 1137.48,-4.77"/>
    </edge>
    <edge id=":j7_16" function="internal">
        <lane id=":j7_16_0" index="0" speed="3.65" length="2.34" shape="1137.48,-4.77 1137.86,-5.58 1139.04,-6.40"/>
    </edge>
    <edge id=":j7_4" function="internal">
        <lane id=":j7_4_0" index="0" speed="6.45" length="9.03" shape="1133.31,-18.33 1133.65,-15.87 1134.70,-14.13 1136.45,-13.10 1138.92,-12.80"/>
    </edge>
    <edge id=":j7_5" function="internal">
        <lane id=":j7_5_0" index="0" speed="13.89" length="27.39" shape="1130.11,-18.35 1130.02,9.04"/>
    </edge>
    <edge id=":j7_6" function="internal">
        <lane id=":j7_6_0" index="0" speed="10.41" length="24.71" shape="1126.91,-18.37 1125.92,-11.61 1123.05,-6.80 1118.29,-3.92 1111.65,-2.98"/>
    </edge>
    <edge id=":j7_7" function="internal">
        <lane id=":j7_7_0" index="0" speed="3.65" length="2.34" shape="1126.91,-18.37 1126.10,-17.17 1125.30,-16.78"/>
    </edge>
    <edge id=":j7_17" function="internal">
        <lane id=":j7_17_0" index="0" speed="3.65" length="2.34" shape="1125.30,-16.78 1124.50,-17.18 1123.71,-18.39"/>
    </edge>
    <edge id=":j7_8" function="internal">
        <lane id=":j7_8_0" index="0" speed="6.58" length="9.25" shape="1111.68,-12.58 1114.13,-12.94 1115.89,-14.03 1116.95,-15.86 1117.31,-18.42"/>
    </edge>
    <edge id=":j7_9" function="internal">
        <lane id=":j7_9_0" index="0" speed="13.89" length="27.31" shape="1111.67,-9.38 1138.98,-9.60"/>
    </edge>
    <edge id=":j7_10" function="internal">
        <lane id=":j7_10_0" index="0" speed="10.37" length="24.49" shape="1111.66,-6.18 1118.30,-5.21 1123.04,-2.35 1125.88,2.40 1126.82,9.04"/>
    </edge>
    <edge id=":j7_11" function="internal">
        <lane id=":j7_11_0" index="0" speed="3.65" length="2.34" shape="1111.66,-6.18 1112.85,-5.37 1113.25,-4.57"/>
    </edge>
    <edge id=":j7_18" function="internal">
        <lane id=":j7_18_0" index="0" speed="3.65" length="2.34" shape="1113.25,-4.57 1112.85,-3.77 1111.65,-2.98"/>
    </edge>
    <edge id=":j7_12" function="internal">
        <lane id=":j7_12_0" index="0" speed="6.52" length="9.04" shape="1117.22,9.04 1116.87,6.59 1115.82,4.83 1114.07,3.78 1111.62,3.42"/>
    </edge>
    <edge id=":j7_13" function="internal">
        <lane id=":j7_13_0" index="0" speed="13.89" length="27.44" shape="1120.42,9.04 1120.51,-18.41"/>
    </edge>
    <edge id=":j7_14" function="internal">
        <lane id=":j7_14_0" index="0" speed="10.49" length="24.77" shape="1123.62,9.04 1124.59,2.40 1127.48,-2.39 1132.30,-5.32 1139.04,-6.40"/>
    </edge>
    <edge id=":j7_15" function="internal">
        <lane id=":j7_15_0" index="0" speed="3.65" length="2.34" shape="1123.62,9.04 1124.42,7.84 1125.22,7.44"/>
    </edge>
    <edge id=":j7_19" function="internal">
        <lane id=":j7_19_0" index="0" speed="3.65" length="2.34" shape="1125.22,7.44 1126.02,7.84 1126.82,9.04"/>
    </edge>
    <edge id=":j8_0" function="internal">
        <lane id=":j8_0_0" index="0" speed="3.65" length="4.67" shape="1460.60,-12.69 1461.81,-11.91 1462.23,-11.12 1461.85,-10.31 1460.66,-9.49"/>
    </edge>
    <edge id=":j9_0" function="internal">
        <lane id=":j9_0_0" index="0" speed="3.65" length="4.67" shape="-66.49,-277.72 -67.70,-278.51 -68.11,-279.30 -67.72,-280.11 -66.53,-280.92"/>
    </edge>

    <edge id="-E0" from="j5" to="j4" priority="-1">
        <lane id="-E0_0" index="0" speed="13.89" length="423.23" shape="355.33,2.84 -67.90,3.00"/>
        <lane id="-E0_1" index="1" speed="13.89" length="423.23" shape="355.33,-0.36 -67.90,-0.20"/>
        <lane id="-E0_2" index="2" speed="13.89" length="423.23" shape="355.33,-3.56 -67.90,-3.40"/>
    </edge>
    <edge id="-E1" from="j10" to="j5" priority="-1">
        <lane id="-E1_0" index="0" speed="13.89" length="251.83" shape="376.26,-270.65 376.91,-18.81"/>
        <lane id="-E1_1" index="1" speed="13.89" length="251.83" shape="373.06,-270.64 373.71,-18.80"/>
        <lane id="-E1_2" index="2" speed="13.89" length="251.83" shape="369.86,-270.63 370.51,-18.80"/>
    </edge>
    <edge id="-E10" from="j7" to="j6" priority="-1">
        <lane id="-E10_0" index="0" speed="13.89" length="350.82" shape="1111.62,3.42 760.81,2.15"/>
        <lane id="-E10_1" index="1" speed="13.89" length="350.82" shape="1111.63,0.22 760.82,-1.05"/>
        <lane id="-E10_2" index="2" speed="13.89" length="350.82" shape="1111.65,-2.98 760.83,-4.25"/>
    </edge>
    <edge id="-E11" from="j2" to="j6" priority="-1">
        <lane id="-E11_0" index="0" speed="13.89" length="206.53" shape="737.68,214.25 739.17,7.73"/>
        <lane id="-E11_1" index="1" speed="13.89" length="206.53" shape="740.88,214.28 742.37,7.75"/>
        <lane id="-E11_2" index="2" speed="13.89" length="206.53" shape="744.08,214.30 745.57,7.78"/>
    </edge>
    <edge id="-E12" from="j3" to="j7" priority="-1">
        <lane id="-E12_0" index="0" speed="13.89" length="226.13" shape="1117.12,235.17 1117.22,9.04"/>
        <lane id="-E12_1" index="1" speed="13.89" length="226.13" shape="1120.32,235.17 1120.42,9.04"/>
        <lane id="-E12_2" index="2" speed="13.89" length="226.13" shape="1123.52,235.17 1123.62,9.04"/>
    </edge>
    <edge id="-E13" from="j12" to="j7" priority="-1">
        <lane id="-E13_0" index="0" speed="13.89" length="251.37" shape="1134.79,-269.69 1133.31,-18.33"/>
        <lane id="-E13_1" index="1" speed="13.89" length="251.37" shape="1131.59,-269.71 1130.11,-18.35"/>
        <lane id="-E13_2" index="2" speed="13.89" length="251.37" shape="1128.39,-269.73 1126.91,-18.37"/>
    </edge>
    <edge id="-E15" from="j16" to="j12" priority="-1">
        <lane id="-E15_0" index="0" speed="13.89" length="260.80" shape="1138.91,-558.03 1135.07,-297.26"/>
        <lane id="-E15_1" index="1" speed="13.89" length="260.80" shape="1135.71,-558.08 1131.87,-297.31"/>
        <lane id="-E15_2" index="2" speed="13.89" length="260.80" shape="1132.51,-558.13 1128.68,-297.35"/>
    </edge>
    <edge id="-E16" from="j13" to="j12" priority="-1">
        <lane id="-E16_0" index="0" speed="13.89" length="289.29" shape="1430.23,-282.40 1141.02,-275.73"/>
        <lane id="-E16_1" index="1" speed="13.89" length="289.29" shape="1430.16,-285.60 1140.95,-278.93"/>
        <lane id="-E16_2" index="2" speed="13.89" length="289.29" shape="1430.09,-288.80 1140.87,-282.13"/>
    </edge>
    <edge id="-E18" from="j7" to="j8" priority="-1">
        <lane id="-E18_0" index="0" speed="13.89" length="321.62" shape="1138.92,-12.80 1460.47,-19.09"/>
        <lane id="-E18_1" index="1" speed="13.89" length="321.62" shape="1138.98,-9.60 1460.54,-15.89"/>
        <lane id="-E18_2" index="2" speed="13.89" length="321.62" shape="1139.04,-6.40 1460.60,-12.69"/>
    </edge>
    <edge id="-E2" from="j1" to="j5" priority="-1">
        <lane id="-E2_0" index="0" speed="13.89" length="186.79" shape="361.70,195.27 361.00,8.48"/>
        <lane id="-E2_1" index="1" speed="13.89" length="186.79" shape="364.90,195.26 364.20,8.47"/>
        <lane id="-E2_2" index="2" speed="13.89" length="186.79" shape="368.10,195.25 367.40,8.45"/>
    </edge>
    <edge id="-E3" from="j6" to="j5" priority="-1">
        <lane id="-E3_0" index="0" speed="13.89" length="351.02" shape="733.60,2.13 382.58,2.80"/>
        <lane id="-E3_1" index="1" speed="13.89" length="351.02" shape="733.59,-1.07 382.58,-0.40"/>
        <lane id="-E3_2" index="2" speed="13.89" length="351.02" shape="733.58,-4.27 382.57,-3.60"/>
    </edge>
    <edge id="-E4" from="j11" to="j10" priority="-1">
        <lane id="-E4_0" index="0" speed="13.89" length="350.29" shape="732.14,-274.96 381.86,-276.26"/>
        <lane id="-E4_1" index="1" speed="13.89" length="350.29" shape="732.15,-278.16 381.87,-279.46"/>
        <lane id="-E4_2" index="2" speed="13.89" length="350.29" shape="732.16,-281.36 381.88,-282.66"/>
    </edge>
    <edge id="-E5" from="j11" to="j6" priority="-1">