<?xml version="1.0" encoding="UTF-8"?>

<!-- generated on 2024-11-07 19:12:04 by Eclipse SUMO netedit Version 1.21.0
<neteditConfiguration xmlns:xsi="http://www.w3.org/2001/XMLSchema-instance" xsi:noNamespaceSchemaLocation="http://sumo.dlr.de/xsd/neteditConfiguration.xsd">

    <input>
        <sumo-net-file value="E:\BITMaster\Projects\Multi_Intersection_Sim\NewMap\try2\Map.net.xml"/>
    </input>

    <output>
        <output-file value="E:\BITMaster\Projects\Multi_Intersection_Sim\NewMap\try2\Map.net.xml"/>
    </output>

    <processing>
        <geometry.min-radius.fix.railways value="false"/>
        <geometry.max-grade.fix value="false"/>
        <offset.disable-normalization value="true"/>
        <lefthand value="0"/>
    </processing>

    <junctions>
        <no-turnarounds value="true"/>
        <junctions.corner-detail value="5"/>
        <junctions.limit-turn-speed value="5.50"/>
        <rectangular-lane-cut value="0"/>
    </junctions>

    <pedestrian>
        <walkingareas value="0"/>
    </pedestrian>

</neteditConfiguration>
-->

<net version="1.20" junctionCornerDetail="5" limitTurnSpeed="5.50" xmlns:xsi="http://www.w3.org/2001/XMLSchema-instance" xsi:noNamespaceSchemaLocation="http://sumo.dlr.de/xsd/net_file.xsd">

    <location netOffset="0.00,0.00" convBoundary="-67.90,-563.45,1460.63,235.17" origBoundary="-10000000000.00,-10000000000.00,10000000000.00,10000000000.00" projParameter="!"/>

    <edge id=":j1_0" function="internal">
        <lane id=":j1_0_0" index="0" speed="3.65" length="4.67" shape="371.30,195.23 370.50,196.44 369.71,196.84 368.90,196.44 368.10,195.25"/>
    </edge>
    <edge id=":j10_0" function="internal">
        <lane id=":j10_0_0" index="0" speed="6.49" length="9.03" shape="360.26,-270.60 359.90,-273.06 358.84,-274.80 357.08,-275.83 354.63,-276.15"/>
        <lane id=":j10_0_1" index="1" speed="7.31" length="11.74" shape="360.26,-270.60 359.89,-274.46 358.83,-277.20 357.06,-278.83 354.59,-279.35"/>
        <lane id=":j10_0_2" index="2" speed="8.08" length="14.60" shape="360.26,-270.60 359.89,-275.86 358.81,-279.60 357.04,-281.83 354.55,-282.55"/>
    </edge>
    <edge id=":j10_3" function="internal">
        <lane id=":j10_3_0" index="0" speed="13.89" length="27.58" shape="363.46,-270.61 362.94,-278.78 361.84,-284.34 360.78,-289.89 360.36,-298.06"/>
        <lane id=":j10_3_1" index="1" speed="13.89" length="27.58" shape="363.46,-270.61 363.56,-298.03"/>
        <lane id=":j10_3_2" index="2" speed="13.89" length="27.58" shape="363.46,-270.61 363.94,-278.77 365.04,-284.30 366.18,-289.84 366.76,-297.99"/>
    </edge>
    <edge id=":j10_6" function="internal">
        <lane id=":j10_6_0" index="0" speed="11.39" length="22.28" shape="366.66,-270.62 367.59,-280.11 370.44,-286.88 374.56,-290.37"/>
        <lane id=":j10_6_1" index="1" speed="10.88" length="20.83" shape="366.66,-270.62 367.59,-278.71 370.44,-284.48 375.21,-287.93 375.57,-287.99"/>
        <lane id=":j10_6_2" index="2" speed="10.36" length="21.57" shape="366.66,-270.62 367.59,-277.31 370.44,-282.08 375.21,-284.93 378.89,-285.44"/>
    </edge>
    <edge id=":j10_9" function="internal">
        <lane id=":j10_9_0" index="0" speed="3.65" length="1.44" shape="366.66,-270.62 367.45,-271.82"/>
    </edge>
    <edge id=":j10_40" function="internal">
        <lane id=":j10_40_0" index="0" speed="11.39" length="7.69" shape="374.56,-290.37 375.22,-290.93 381.92,-292.26"/>
    </edge>
    <edge id=":j10_41" function="internal">
        <lane id=":j10_41_0" index="0" speed="10.88" length="6.42" shape="375.57,-287.99 381.90,-289.06"/>
    </edge>
    <edge id=":j10_42" function="internal">
        <lane id=":j10_42_0" index="0" speed="10.36" length="3.04" shape="378.89,-285.44 381.89,-285.86"/>
    </edge>
    <edge id=":j10_43" function="internal">
        <lane id=":j10_43_0" index="0" speed="3.65" length="3.23" shape="367.45,-271.82 368.25,-272.22 369.05,-271.83 369.86,-270.63"/>
    </edge>
    <edge id=":j10_10" function="internal">
        <lane id=":j10_10_0" index="0" speed="6.50" length="9.06" shape="381.86,-276.26 379.40,-275.92 377.65,-274.87 376.60,-273.11 376.26,-270.65"/>
        <lane id=":j10_10_1" index="1" speed="7.32" length="11.76" shape="381.86,-276.26 378.00,-275.92 375.25,-274.87 373.60,-273.11 373.06,-270.64"/>
        <lane id=":j10_10_2" index="2" speed="8.09" length="14.61" shape="381.86,-276.26 376.60,-275.92 372.85,-274.87 370.60,-273.11 369.86,-270.63"/>
    </edge>
    <edge id=":j10_13" function="internal">
        <lane id=":j10_13_0" index="0" speed="13.89" length="27.44" shape="381.87,-279.46 373.75,-278.99 368.25,-277.88 362.74,-276.74 354.63,-276.15"/>
        <lane id=":j10_13_1" index="1" speed="13.89" length="27.44" shape="381.87,-279.46 354.59,-279.35"/>
        <lane id=":j10_13_2" index="2" speed="13.89" length="27.44" shape="381.87,-279.46 373.73,-279.99 368.21,-281.08 362.69,-282.14 354.55,-282.55"/>
    </edge>
    <edge id=":j10_16" function="internal">
        <lane id=":j10_16_0" index="0" speed="11.38" length="22.11" shape="381.88,-282.66 372.41,-283.65 365.66,-286.55 362.30,-290.58"/>
        <lane id=":j10_16_1" index="1" speed="10.87" length="20.75" shape="381.88,-282.66 373.81,-283.65 368.06,-286.54 364.65,-291.33 364.60,-291.63"/>
        <lane id=":j10_16_2" index="2" speed="10.35" length="21.56" shape="381.88,-282.66 375.21,-283.64 370.46,-286.52 367.65,-291.31 367.16,-294.98"/>
    </edge>
    <edge id=":j10_19" function="internal">
        <lane id=":j10_19_0" index="0" speed="3.65" length="1.44" shape="381.88,-282.66 380.68,-283.46"/>
    </edge>
    <edge id=":j10_44" function="internal">
        <lane id=":j10_44_0" index="0" speed="11.38" length="7.84" shape="362.30,-290.58 361.65,-291.35 360.36,-298.06"/>
    </edge>
    <edge id=":j10_45" function="internal">
        <lane id=":j10_45_0" index="0" speed="10.87" length="6.48" shape="364.60,-291.63 363.56,-298.03"/>
    </edge>
    <edge id=":j10_46" function="internal">
        <lane id=":j10_46_0" index="0" speed="10.35" length="3.03" shape="367.16,-294.98 366.76,-297.99"/>
    </edge>
    <edge id=":j10_47" function="internal">
        <lane id=":j10_47_0" index="0" speed="3.65" length="3.23" shape="380.68,-283.46 380.29,-284.27 380.69,-285.06 381.89,-285.86"/>
    </edge>
    <edge id=":j10_20" function="internal">
        <lane id=":j10_20_0" index="0" speed="6.49" length="9.03" shape="376.36,-297.89 376.69,-295.43 377.72,-293.68 379.46,-292.62 381.92,-292.26"/>
        <lane id=":j10_20_1" index="1" speed="7.31" length="11.74" shape="376.36,-297.89 376.67,-294.03 377.70,-291.28 379.44,-289.62 381.90,-289.06"/>
        <lane id=":j10_20_2" index="2" speed="8.09" length="14.59" shape="376.36,-297.89 376.66,-292.63 377.68,-288.88 379.43,-286.62 381.89,-285.86"/>
    </edge>
    <edge id=":j10_23" function="internal">
        <lane id=":j10_23_0" index="0" speed="13.89" length="27.45" shape="373.16,-297.92 373.58,-289.80 374.64,-284.29 375.74,-278.77 376.26,-270.65"/>
        <lane id=":j10_23_1" index="1" speed="13.89" length="27.45" shape="373.16,-297.92 373.06,-270.64"/>
        <lane id=":j10_23_2" index="2" speed="13.89" length="27.45" shape="373.16,-297.92 372.58,-289.79 371.44,-284.28 370.34,-278.76 369.86,-270.63"/>
    </edge>
    <edge id=":j10_26" function="internal">
        <lane id=":j10_26_0" index="0" speed="11.51" length="22.32" shape="369.96,-297.96 368.92,-288.48 366.02,-281.69 361.93,-278.17"/>
        <lane id=":j10_26_1" index="1" speed="11.01" length="20.91" shape="369.96,-297.96 368.93,-289.88 366.02,-284.09 361.24,-280.58 360.89,-280.52"/>
        <lane id=":j10_26_2" index="2" speed="10.49" length="21.71" shape="369.96,-297.96 368.94,-291.28 366.03,-286.49 361.24,-283.58 357.53,-283.01"/>
    </edge>
    <edge id=":j10_29" function="internal">
        <lane id=":j10_29_0" index="0" speed="3.65" length="1.44" shape="369.96,-297.96 369.15,-296.77"/>
    </edge>
    <edge id=":j10_48" function="internal">
        <lane id=":j10_48_0" index="0" speed="11.51" length="7.67" shape="361.93,-278.17 361.25,-277.58 354.63,-276.15"/>
    </edge>
    <edge id=":j10_49" function="internal">
        <lane id=":j10_49_0" index="0" speed="11.01" length="6.40" shape="360.89,-280.52 354.59,-279.35"/>
    </edge>
    <edge id=":j10_50" function="internal">
        <lane id=":j10_50_0" index="0" speed="10.49" length="3.01" shape="357.53,-283.01 354.55,-282.55"/>
    </edge>
    <edge id=":j10_51" function="internal">
        <lane id=":j10_51_0" index="0" speed="3.65" length="3.23" shape="369.15,-296.77 368.35,-296.38 367.55,-296.78 366.76,-297.99"/>
    </edge>
    <edge id=":j10_30" function="internal">
        <lane id=":j10_30_0" index="0" speed="6.71" length="9.49" shape="354.44,-292.15 357.01,-292.55 358.85,-293.66 359.97,-295.50 360.36,-298.06"/>
        <lane id=":j10_30_1" index="1" speed="7.50" length="12.14" shape="354.44,-292.15 358.41,-292.56 361.25,-293.67 362.97,-295.50 363.56,-298.03"/>
        <lane id=":j10_30_2" index="2" speed="8.26" length="14.95" shape="354.44,-292.15 359.81,-292.57 363.65,-293.68 365.97,-295.49 366.76,-297.99"/>
    </edge>
    <edge id=":j10_33" function="internal">
        <lane id=":j10_33_0" index="0" speed="13.89" length="27.59" shape="354.48,-288.95 362.65,-289.54 368.20,-290.68 373.74,-291.79 381.92,-292.26"/>
        <lane id=":j10_33_1" index="1" speed="13.89" length="27.59" shape="354.48,-288.95 381.90,-289.06"/>
        <lane id=":j10_33_2" index="2" speed="13.89" length="27.59" shape="354.48,-288.95 362.64,-288.54 368.19,-287.48 373.73,-286.39 381.89,-285.86"/>
    </edge>
    <edge id=":j10_36" function="internal">
        <lane id=":j10_36_0" index="0" speed="11.38" length="22.27" shape="354.52,-285.75 364.01,-284.90 370.80,-282.10 374.31,-278.01"/>
        <lane id=":j10_36_1" index="1" speed="10.87" length="20.82" shape="354.52,-285.75 362.61,-284.89 368.40,-282.08 371.88,-277.33 371.94,-276.98"/>
        <lane id=":j10_36_2" index="2" speed="10.35" length="21.57" shape="354.52,-285.75 361.21,-284.87 366.00,-282.06 368.88,-277.31 369.42,-273.64"/>
    </edge>
    <edge id=":j10_39" function="internal">
        <lane id=":j10_39_0" index="0" speed="3.65" length="1.44" shape="354.52,-285.75 355.73,-284.97"/>
    </edge>
    <edge id=":j10_52" function="internal">
        <lane id=":j10_52_0" index="0" speed="11.38" length="7.71" shape="374.31,-278.01 374.88,-277.35 376.26,-270.65"/>
    </edge>
    <edge id=":j10_53" function="internal">
        <lane id=":j10_53_0" index="0" speed="10.87" length="6.44" shape="371.94,-276.98 373.06,-270.64"/>
    </edge>
    <edge id=":j10_54" function="internal">
        <lane id=":j10_54_0" index="0" speed="10.35" length="3.04" shape="369.42,-273.64 369.86,-270.63"/>
    </edge>
    <edge id=":j10_55" function="internal">
        <lane id=":j10_55_0" index="0" speed="3.65" length="3.23" shape="355.73,-284.97 356.14,-284.17 355.74,-283.37 354.55,-282.55"/>
    </edge>
    <edge id=":j11_0" function="internal">
        <lane id=":j11_0_0" index="0" speed="6.56" length="9.14" shape="737.76,-269.22 737.40,-271.72 736.34,-273.52 734.59,-274.59 732.14,-274.96"/>
        <lane id=":j11_0_1" index="1" speed="7.38" length="11.82" shape="737.76,-269.22 737.39,-273.12 736.33,-275.92 734.59,-277.59 732.15,-278.16"/>
        <lane id=":j11_0_2" index="2" speed="8.15" length="14.66" shape="737.76,-269.22 737.38,-274.52 736.33,-278.32 734.59,-280.59 732.16,-281.36"/>
    </edge>
    <edge id=":j11_3" function="internal">
        <lane id=":j11_3_0" index="0" speed="13.89" length="27.68" shape="740.96,-269.24 740.42,-277.45 739.32,-283.02 738.27,-288.60 737.90,-296.80"/>
        <lane id=":j11_3_1" index="1" speed="13.89" length="27.68" shape="740.96,-269.24 741.10,-296.75"/>
        <lane id=":j11_3_2" index="2" speed="13.89" length="27.68" shape="740.96,-269.24 741.42,-277.42 742.52,-282.97 743.67,-288.52 744.30,-296.70"/>
    </edge>
    <edge id=":j11_6" function="internal">
        <lane id=":j11_6_0" index="0" speed="11.40" length="22.30" shape="744.16,-269.26 745.07,-278.73 747.92,-285.50 752.06,-289.02"/>
        <lane id=":j11_6_1" index="1" speed="10.90" length="20.85" shape="744.16,-269.26 745.07,-277.33 747.93,-283.10 752.72,-286.57 753.08,-286.63"/>
        <lane id=":j11_6_2" index="2" speed="10.38" length="21.62" shape="744.16,-269.26 745.08,-275.93 747.94,-280.70 752.72,-283.57 756.43,-284.10"/>
    </edge>
    <edge id=":j11_9" function="internal">
        <lane id=":j11_9_0" index="0" speed="3.65" length="1.44" shape="744.16,-269.26 744.95,-270.46"/>
    </edge>
    <edge id=":j11_40" function="internal">
        <lane id=":j11_40_0" index="0" speed="11.40" length="7.71" shape="752.06,-289.02 752.71,-289.57 759.44,-290.93"/>
    </edge>
    <edge id=":j11_41" function="internal">
        <lane id=":j11_41_0" index="0" speed="10.90" length="6.45" shape="753.08,-286.63 759.44,-287.73"/>
    </edge>
    <edge id=":j11_42" function="internal">
        <lane id=":j11_42_0" index="0" speed="10.38" length="3.05" shape="756.43,-284.10 759.45,-284.53"/>
    </edge>
    <edge id=":j11_43" function="internal">
        <lane id=":j11_43_0" index="0" speed="3.65" length="3.23" shape="744.95,-270.46 745.75,-270.87 746.55,-270.47 747.36,-269.28"/>
    </edge>
    <edge id=":j11_10" function="internal">
        <lane id=":j11_10_0" index="0" speed="6.53" length="9.13" shape="759.46,-274.93 756.95,-274.57 755.17,-273.52 754.10,-271.77 753.76,-269.31"/>
        <lane id=":j11_10_1" index="1" speed="7.35" length="11.84" shape="759.46,-274.93 755.55,-274.57 752.77,-273.51 751.10,-271.76 750.56,-269.30"/>
        <lane id=":j11_10_2" index="2" speed="8.12" length="14.70" shape="759.46,-274.93 754.15,-274.57 750.37,-273.51 748.10,-271.74 747.36,-269.28"/>
    </edge>
    <edge id=":j11_13" function="internal">
        <lane id=":j11_13_0" index="0" speed="13.89" length="27.47" shape="759.45,-278.13 751.32,-277.62 745.80,-276.52 740.27,-275.43 732.14,-274.96"/>
        <lane id=":j11_13_1" index="1" speed="13.89" length="27.47" shape="759.45,-278.13 732.15,-278.16"/>
        <lane id=":j11_13_2" index="2" speed="13.89" length="27.47" shape="759.45,-278.13 751.33,-278.62 745.81,-279.72 740.29,-280.83 732.16,-281.36"/>
    </edge>
    <edge id=":j11_16" function="internal">
        <lane id=":j11_16_0" index="0" speed="11.37" length="22.21" shape="759.45,-281.33 749.93,-282.28 743.16,-285.18 739.80,-289.25"/>
        <lane id=":j11_16_1" index="1" speed="10.86" length="20.81" shape="759.45,-281.33 751.33,-282.28 745.56,-285.17 742.15,-290.00 742.11,-290.27"/>
        <lane id=":j11_16_2" index="2" speed="10.34" length="21.64" shape="759.45,-281.33 752.73,-282.28 747.96,-285.16 745.15,-289.97 744.69,-293.66"/>
    </edge>
    <edge id=":j11_19" function="internal">
        <lane id=":j11_19_0" index="0" speed="3.65" length="1.44" shape="759.45,-281.33 758.25,-282.13"/>
    </edge>
    <edge id=":j11_44" function="internal">
        <lane id=":j11_44_0" index="0" speed="11.37" length="7.90" shape="739.80,-289.25 739.15,-290.02 737.90,-296.80"/>
    </edge>
    <edge id=":j11_45" function="internal">
        <lane id=":j11_45_0" index="0" speed="10.86" length="6.56" shape="742.11,-290.27 741.10,-296.75"/>
    </edge>
    <edge id=":j11_46" function="internal">
        <lane id=":j11_46_0" index="0" speed="10.34" length="3.07" shape="744.69,-293.66 744.30,-296.70"/>
    </edge>
    <edge id=":j11_47" function="internal">
        <lane id=":j11_47_0" index="0" speed="3.65" length="3.23" shape="758.25,-282.13 757.85,-282.93 758.25,-283.73 759.45,-284.53"/>
    </edge>
    <edge id=":j11_20" function="internal">
        <lane id=":j11_20_0" index="0" speed="6.47" length="9.03" shape="753.90,-296.55 754.21,-294.09 755.24,-292.33 756.98,-291.28 759.44,-290.93"/>
        <lane id=":j11_20_1" index="1" speed="7.29" length="11.76" shape="753.90,-296.55 754.19,-292.69 755.21,-289.93 756.96,-288.28 759.44,-287.73"/>
        <lane id=":j11_20_2" index="2" speed="8.07" length="14.63" shape="753.90,-296.55 754.17,-291.29 755.19,-287.53 756.95,-285.28 759.45,-284.53"/>
    </edge>
    <edge id=":j11_23" function="internal">
        <lane id=":j11_23_0" index="0" speed="13.89" length="27.47" shape="750.70,-296.60 751.07,-288.48 752.12,-282.96 753.22,-277.44 753.76,-269.31"/>
        <lane id=":j11_23_1" index="1" speed="13.89" length="27.47" shape="750.70,-296.60 750.56,-269.30"/>
        <lane id=":j11_23_2" index="2" speed="13.89" length="27.47" shape="750.70,-296.60 750.07,-288.46 748.92,-282.94 747.82,-277.42 747.36,-269.28"/>
    </edge>
    <edge id=":j11_26" function="internal">
        <lane id=":j11_26_0" index="0" speed="11.46" length="22.30" shape="747.50,-296.65 746.41,-287.14 743.49,-280.35 739.42,-276.89"/>
        <lane id=":j11_26_1" index="1" speed="10.95" length="20.90" shape="747.50,-296.65 746.43,-288.54 743.51,-282.75 738.76,-279.29 738.41,-279.23"/>
        <lane id=":j11_26_2" index="2" speed="10.43" length="21.64" shape="747.50,-296.65 746.45,-289.94 743.54,-285.15 738.78,-282.29 735.13,-281.78"/>
    </edge>
    <edge id=":j11_29" function="internal">
        <lane id=":j11_29_0" index="0" speed="3.65" length="1.44" shape="747.50,-296.65 746.68,-295.46"/>
    </edge>
    <edge id=":j11_48" function="internal">
        <lane id=":j11_48_0" index="0" speed="11.46" length="7.63" shape="739.42,-276.89 738.73,-276.29 732.14,-274.96"/>
    </edge>
    <edge id=":j11_49" function="internal">
        <lane id=":j11_49_0" index="0" speed="10.95" length="6.34" shape="738.41,-279.23 732.15,-278.16"/>
    </edge>
    <edge id=":j11_50" function="internal">
        <lane id=":j11_50_0" index="0" speed="10.43" length="2.99" shape="735.13,-281.78 732.16,-281.36"/>
    </edge>
    <edge id=":j11_51" function="internal">
        <lane id=":j11_51_0" index="0" speed="3.65" length="3.23" shape="746.68,-295.46 745.87,-295.08 745.08,-295.49 744.30,-296.70"/>
    </edge>
    <edge id=":j11_30" function="internal">
        <lane id=":j11_30_0" index="0" speed="6.62" length="9.28" shape="732.20,-290.96 734.66,-291.32 736.43,-292.41 737.51,-294.24 737.90,-296.80"/>
        <lane id=":j11_30_1" index="1" speed="7.42" length="11.94" shape="732.20,-290.96 736.06,-291.31 738.83,-292.39 740.51,-294.21 741.10,-296.75"/>
        <lane id=":j11_30_2" index="2" speed="8.18" length="14.74" shape="732.20,-290.96 737.46,-291.30 741.23,-292.37 743.51,-294.17 744.30,-296.70"/>
    </edge>
    <edge id=":j11_33" function="internal">
        <lane id=":j11_33_0" index="0" speed="13.89" length="27.42" shape="732.19,-287.76 740.30,-288.23 745.81,-289.32 751.32,-290.42 759.44,-290.93"/>
        <lane id=":j11_33_1" index="1" speed="13.89" length="27.42" shape="732.19,-287.76 759.44,-287.73"/>
        <lane id=":j11_33_2" index="2" speed="13.89" length="27.42" shape="732.19,-287.76 740.31,-287.23 745.82,-286.12 751.33,-285.02 759.45,-284.53"/>
    </edge>
    <edge id=":j11_36" function="internal">
        <lane id=":j11_36_0" index="0" speed="11.43" length="22.15" shape="732.18,-284.56 741.59,-283.58 748.32,-280.71 751.81,-276.62"/>
        <lane id=":j11_36_1" index="1" speed="10.92" length="20.73" shape="732.18,-284.56 740.19,-283.58 745.92,-280.71 749.38,-275.95 749.44,-275.59"/>
        <lane id=":j11_36_2" index="2" speed="10.40" length="21.50" shape="732.18,-284.56 738.79,-283.58 743.52,-280.71 746.38,-275.94 746.92,-272.26"/>
    </edge>
    <edge id=":j11_39" function="internal">
        <lane id=":j11_39_0" index="0" speed="3.65" length="1.44" shape="732.18,-284.56 733.37,-283.76"/>
    </edge>
    <edge id=":j11_52" function="internal">
        <lane id=":j11_52_0" index="0" speed="11.43" length="7.66" shape="751.81,-276.62 752.38,-275.95 753.76,-269.31"/>
    </edge>
    <edge id=":j11_53" function="internal">
        <lane id=":j11_53_0" index="0" speed="10.92" length="6.39" shape="749.44,-275.59 750.56,-269.30"/>
    </edge>
    <edge id=":j11_54" function="internal">
        <lane id=":j11_54_0" index="0" speed="10.40" length="3.02" shape="746.92,-272.26 747.36,-269.28"/>
    </edge>
    <edge id=":j11_55" function="internal">
        <lane id=":j11_55_0" index="0" speed="3.65" length="3.23" shape="733.37,-283.76 733.77,-282.95 733.37,-282.16 732.16,-281.36"/>
    </edge>
    <edge id=":j12_0" function="internal">
        <lane id=":j12_0_0" index="0" speed="6.83" length="9.83" shape="1141.02,-275.73 1138.31,-275.30 1136.36,-274.15 1135.19,-272.28 1134.79,-269.69"/>
        <lane id=":j12_0_1" index="1" speed="7.62" length="12.49" shape="1141.02,-275.73 1136.91,-275.28 1133.96,-274.12 1132.19,-272.27 1131.59,-269.71"/>
        <lane id=":j12_0_2" index="2" speed="8.37" length="15.29" shape="1141.02,-275.73 1135.51,-275.25 1131.56,-274.09 1129.19,-272.25 1128.39,-269.73"/>
    </edge>
    <edge id=":j12_3" function="internal">
        <lane id=":j12_3_0" index="0" speed="13.89" length="27.90" shape="1140.95,-278.93 1132.68,-278.25 1127.08,-277.05 1121.48,-275.91 1113.21,-275.39"/>
        <lane id=":j12_3_1" index="1" speed="13.89" length="27.90" shape="1140.95,-278.93 1113.21,-278.59"/>
        <lane id=":j12_3_2" index="2" speed="13.89" length="27.90" shape="1140.95,-278.93 1132.69,-279.25 1127.08,-280.25 1121.46,-281.31 1113.20,-281.79"/>
    </edge>
    <edge id=":j12_6" function="internal">
        <lane id=":j12_6_0" index="0" speed="11.34" length="22.33" shape="1140.87,-282.13 1131.25,-282.90 1124.41,-285.72 1121.03,-289.77"/>
        <lane id=":j12_6_1" index="1" speed="10.83" length="20.96" shape="1140.87,-282.13 1132.65,-282.93 1126.81,-285.74 1123.35,-290.58 1123.31,-290.85"/>
        <lane id=":j12_6_2" index="2" speed="10.31" length="21.84" shape="1140.87,-282.13 1134.05,-282.95 1129.21,-285.77 1126.35,-290.59 1125.87,-294.32"/>
    </edge>
    <edge id=":j12_9" function="internal">
        <lane id=":j12_9_0" index="0" speed="3.65" length="1.44" shape="1140.87,-282.13 1139.65,-282.90"/>
    </edge>
    <edge id=":j12_40" function="internal">
        <lane id=":j12_40_0" index="0" speed="11.34" length="8.08" shape="1121.03,-289.77 1120.35,-290.58 1119.08,-297.50"/>
    </edge>
    <edge id=":j12_41" function="internal">
        <lane id=":j12_41_0" index="0" speed="10.83" length="6.68" shape="1123.31,-290.85 1122.28,-297.45"/>
    </edge>
    <edge id=":j12_42" function="internal">
        <lane id=":j12_42_0" index="0" speed="10.31" length="3.11" shape="1125.87,-294.32 1125.48,-297.40"/>
    </edge>
    <edge id=":j12_43" function="internal">
        <lane id=":j12_43_0" index="0" speed="3.65" length="3.23" shape="1139.65,-282.90 1139.24,-283.70 1139.62,-284.50 1140.80,-285.33"/>
    </edge>
    <edge id=":j12_10" function="internal">
        <lane id=":j12_10_0" index="0" speed="6.43" length="9.03" shape="1135.07,-297.26 1135.39,-294.79 1136.43,-293.05 1138.18,-292.03 1140.65,-291.73"/>
        <lane id=":j12_10_1" index="1" speed="7.25" length="11.80" shape="1135.07,-297.26 1135.38,-293.39 1136.42,-290.65 1138.20,-289.03 1140.73,-288.53"/>
        <lane id=":j12_10_2" index="2" speed="8.03" length="14.70" shape="1135.07,-297.26 1135.37,-291.99 1136.42,-288.25 1138.23,-286.03 1140.80,-285.33"/>
    </edge>
    <edge id=":j12_13" function="internal">
        <lane id=":j12_13_0" index="0" speed="13.89" length="27.76" shape="1131.87,-297.31 1132.26,-289.09 1133.29,-283.50 1134.34,-277.91 1134.79,-269.69"/>
        <lane id=":j12_13_1" index="1" speed="13.89" length="27.76" shape="1131.87,-297.31 1131.59,-269.71"/>
        <lane id=":j12_13_2" index="2" speed="13.89" length="27.76" shape="1131.87,-297.31 1131.26,-289.09 1130.09,-283.52 1128.94,-277.95 1128.39,-269.73"/>
    </edge>
    <edge id=":j12_16" function="internal">
        <lane id=":j12_16_0" index="0" speed="11.53" length="22.56" shape="1128.68,-297.35 1127.59,-287.75 1124.65,-280.89 1120.53,-277.35"/>
        <lane id=":j12_16_1" index="1" speed="11.03" length="21.15" shape="1128.68,-297.35 1127.61,-289.15 1124.67,-283.29 1119.87,-279.77 1119.51,-279.71"/>
        <lane id=":j12_16_2" index="2" speed="10.51" length="21.93" shape="1128.68,-297.35 1127.62,-290.55 1124.69,-285.69 1119.89,-282.77 1116.18,-282.23"/>
    </edge>
    <edge id=":j12_19" function="internal">
        <lane id=":j12_19_0" index="0" speed="3.65" length="1.44" shape="1128.68,-297.35 1127.86,-296.17"/>
    </edge>
    <edge id=":j12_44" function="internal">
        <lane id=":j12_44_0" index="0" speed="11.53" length="7.67" shape="1120.53,-277.35 1119.86,-276.77 1113.21,-275.39"/>
    </edge>
    <edge id=":j12_45" function="internal">
        <lane id=":j12_45_0" index="0" speed="11.03" length="6.40" shape="1119.51,-279.71 1113.21,-278.59"/>
    </edge>
    <edge id=":j12_46" function="internal">
        <lane id=":j12_46_0" index="0" speed="10.51" length="3.01" shape="1116.18,-282.23 1113.20,-281.79"/>
    </edge>
    <edge id=":j12_47" function="internal">
        <lane id=":j12_47_0" index="0" speed="3.65" length="3.23" shape="1127.86,-296.17 1127.05,-295.78 1126.26,-296.19 1125.48,-297.40"/>
    </edge>
    <edge id=":j12_20" function="internal">
        <lane id=":j12_20_0" index="0" speed="6.74" length="9.63" shape="1113.19,-291.39 1115.73,-291.78 1117.56,-292.92 1118.67,-294.83 1119.08,-297.50"/>
        <lane id=":j12_20_1" index="1" speed="7.52" length="12.27" shape="1113.19,-291.39 1117.13,-291.78 1119.96,-292.91 1121.67,-294.80 1122.28,-297.45"/>
        <lane id=":j12_20_2" index="2" speed="8.28" length="15.07" shape="1113.19,-291.39 1118.53,-291.77 1122.36,-292.90 1124.67,-294.78 1125.48,-297.40"/>
    </edge>
    <edge id=":j12_23" function="internal">
        <lane id=":j12_23_0" index="0" speed="13.89" length="27.70" shape="1113.19,-288.19 1121.38,-288.71 1126.92,-289.85 1132.47,-291.05 1140.65,-291.73"/>
        <lane id=":j12_23_1" index="1" speed="13.89" length="27.70" shape="1113.19,-288.19 1140.73,-288.53"/>
        <lane id=":j12_23_2" index="2" speed="13.89" length="27.70" shape="1113.19,-288.19 1121.41,-287.71 1127.00,-286.65 1132.58,-285.65 1140.80,-285.33"/>
    </edge>
    <edge id=":j12_26" function="internal">
        <lane id=":j12_26_0" index="0" speed="11.38" length="22.11" shape="1113.20,-284.99 1122.68,-284.05 1129.44,-281.18 1132.82,-277.17"/>
        <lane id=":j12_26_1" index="1" speed="10.87" length="20.78" shape="1113.20,-284.99 1121.28,-284.05 1127.04,-281.18 1130.47,-276.41 1130.53,-276.08"/>
        <lane id=":j12_26_2" index="2" speed="10.35" length="21.58" shape="1113.20,-284.99 1119.88,-284.05 1124.64,-281.19 1127.47,-276.42 1127.98,-272.72"/>
    </edge>
    <edge id=":j12_29" function="internal">
        <lane id=":j12_29_0" index="0" speed="3.65" length="1.44" shape="1113.20,-284.99 1114.40,-284.19"/>
    </edge>
    <edge id=":j12_48" function="internal">
        <lane id=":j12_48_0" index="0" speed="11.38" length="7.85" shape="1132.82,-277.17 1133.47,-276.40 1134.79,-269.69"/>
    </edge>
    <edge id=":j12_49" function="internal">
        <lane id=":j12_49_0" index="0" speed="10.87" length="6.46" shape="1130.53,-276.08 1131.59,-269.71"/>
    </edge>
    <edge id=":j12_50" function="internal">
        <lane id=":j12_50_0" index="0" speed="10.35" length="3.01" shape="1127.98,-272.72 1128.39,-269.73"/>
    </edge>
    <edge id=":j12_51" function="internal">
        <lane id=":j12_51_0" index="0" speed="3.65" length="3.23" shape="1114.40,-284.19 1114.80,-283.39 1114.40,-282.59 1113.20,-281.79"/>
    </edge>
    <edge id=":j12_30" function="internal">
        <lane id=":j12_30_0" index="0" speed="6.49" length="9.03" shape="1118.79,-269.79 1118.45,-272.24 1117.41,-273.99 1115.66,-275.04 1113.21,-275.39"/>
        <lane id=":j12_30_1" index="1" speed="7.31" length="11.74" shape="1118.79,-269.79 1118.46,-273.64 1117.42,-276.39 1115.67,-278.04 1113.21,-278.59"/>
        <lane id=":j12_30_2" index="2" speed="8.09" length="14.59" shape="1118.79,-269.79 1118.47,-275.04 1117.43,-278.79 1115.67,-281.04 1113.20,-281.79"/>
    </edge>
    <edge id=":j12_33" function="internal">
        <lane id=":j12_33_0" index="0" speed="13.89" length="27.84" shape="1121.99,-269.77 1121.54,-278.02 1120.49,-283.63 1119.46,-289.24 1119.08,-297.50"/>
        <lane id=":j12_33_1" index="1" speed="13.89" length="27.84" shape="1121.99,-269.77 1122.28,-297.45"/>
        <lane id=":j12_33_2" index="2" speed="13.89" length="27.84" shape="1121.99,-269.77 1122.54,-278.00 1123.69,-283.59 1124.86,-289.17 1125.48,-297.40"/>
    </edge>
    <edge id=":j12_36" function="internal">
        <lane id=":j12_36_0" index="0" speed="11.58" length="22.49" shape="1125.19,-269.75 1126.20,-279.23 1129.12,-286.06 1133.30,-289.68"/>
        <lane id=":j12_36_1" index="1" speed="11.08" length="21.08" shape="1125.19,-269.75 1126.20,-277.83 1129.13,-283.66 1133.97,-287.22 1134.37,-287.30"/>
        <lane id=":j12_36_2" index="2" speed="10.57" length="21.95" shape="1125.19,-269.75 1126.20,-276.43 1129.14,-281.26 1134.00,-284.22 1137.80,-284.84"/>
    </edge>
    <edge id=":j12_39" function="internal">
        <lane id=":j12_39_0" index="0" speed="3.65" length="1.44" shape="1125.19,-269.75 1126.00,-270.95"/>
    </edge>
    <edge id=":j12_52" function="internal">
        <lane id=":j12_52_0" index="0" speed="11.58" length="7.72" shape="1133.30,-289.68 1133.93,-290.22 1140.65,-291.73"/>
    </edge>
    <edge id=":j12_53" function="internal">
        <lane id=":j12_53_0" index="0" speed="11.08" length="6.47" shape="1134.37,-287.30 1140.73,-288.53"/>
    </edge>
    <edge id=":j12_54" function="internal">
        <lane id=":j12_54_0" index="0" speed="10.57" length="3.04" shape="1137.80,-284.84 1140.80,-285.33"/>
    </edge>
    <edge id=":j12_55" function="internal">
        <lane id=":j12_55_0" index="0" speed="3.65" length="3.23" shape="1126.00,-270.95 1126.80,-271.34 1127.60,-270.94 1128.39,-269.73"/>
    </edge>
    <edge id=":j13_0" function="internal">